<?xml version="1.0" encoding="UTF-8"?>
<routes xmlns:xsi="http://www.w3.org/2001/XMLSchema-instance" xsi:noNamespaceSchemaLocation="http://sumo.dlr.de/xsd/routes_file.xsd">
  <vType id="passenger" accel="2.6" decel="4.5" sigma="0.5" length="5" maxSpeed="13.9"/>
  <flow id="f0" type="passenger" from="edge_N_in" to="edge_S_out" begin="0" end="27000" vehsPerHour="12.0" departLane="best" departSpeed="max"/>
  <flow id="f1" type="passenger" from="edge_S_in" to="edge_N_out" begin="0" end="27000" vehsPerHour="12.0" departLane="best" departSpeed="max"/>
  <flow id="f2" type="passenger" from="edge_E_in" to="edge_W_out" begin="0" end="27000" vehsPerHour="12.0" departLane="best" departSpeed="max"/>
  <flow id="f3" type="passenger" from="edge_W_in" to="edge_E_out" begin="0" end="27000" vehsPerHour="12.0" departLane="best" departSpeed="max"/>
  <flow id="f4" type="passenger" from="edge_N_in" to="edge_S_out" begin="27000" end="27900" vehsPerHour="408.0" departLane="best" departSpeed="max"/>
  <flow id="f5" type="passenger" from="edge_S_in" to="edge_N_out" begin="27000" end="27900" vehsPerHour="336.0" departLane="best" departSpeed="max"/>
  <flow id="f6" type="passenger" from="edge_E_in" to="edge_W_out" begin="27000" end="27900" vehsPerHour="264.0" departLane="best" departSpeed="max"/>
  <flow id="f7" type="passenger" from="edge_W_in" to="edge_E_out" begin="27000" end="27900" vehsPerHour="316.0" departLane="best" departSpeed="max"/>
  <flow id="f8" type="passenger" from="edge_N_in" to="edge_S_out" begin="27900" end="28800" vehsPerHour="564.0" departLane="best" departSpeed="max"/>
  <flow id="f9" type="passenger" from="edge_S_in" to="edge_N_out" begin="27900" end="28800" vehsPerHour="500.0" departLane="best" departSpeed="max"/>
  <flow id="f10" type="passenger" from="edge_E_in" to="edge_W_out" begin="27900" end="28800" vehsPerHour="380.0" departLane="best" departSpeed="max"/>
  <flow id="f11" type="passenger" from="edge_W_in" to="edge_E_out" begin="27900" end="28800" vehsPerHour="384.0" departLane="best" departSpeed="max"/>
  <flow id="f12" type="passenger" from="edge_N_in" to="edge_S_out" begin="28800" end="29700" vehsPerHour="584.0" departLane="best" departSpeed="max"/>
  <flow id="f13" type="passenger" from="edge_S_in" to="edge_N_out" begin="28800" end="29700" vehsPerHour="444.0" departLane="best" departSpeed="max"/>
  <flow id="f14" type="passenger" from="edge_E_in" to="edge_W_out" begin="28800" end="29700" vehsPerHour="420.0" departLane="best" departSpeed="max"/>
  <flow id="f15" type="passenger" from="edge_W_in" to="edge_E_out" begin="28800" end="29700" vehsPerHour="300.0" departLane="best" departSpeed="max"/>
  <flow id="f16" type="passenger" from="edge_N_in" to="edge_S_out" begin="29700" end="30600" vehsPerHour="812.0" departLane="best" departSpeed="max"/>
  <flow id="f17" type="passenger" from="edge_S_in" to="edge_N_out" begin="29700" end="30600" vehsPerHour="576.0" departLane="best" departSpeed="max"/>
  <flow id="f18" type="passenger" from="edge_E_in" to="edge_W_out" begin="29700" end="30600" vehsPerHour="352.0" departLane="best" departSpeed="max"/>
  <flow id="f19" type="passenger" from="edge_W_in" to="edge_E_out" begin="29700" end="30600" vehsPerHour="344.0" departLane="best" departSpeed="max"/>
  <flow id="f20" type="passenger" from="edge_N_in" to="edge_S_out" begin="30600" end="31500" vehsPerHour="468.0" departLane="best" departSpeed="max"/>
  <flow id="f21" type="passenger" from="edge_S_in" to="edge_N_out" begin="30600" end="31500" vehsPerHour="448.0" departLane="best" departSpeed="max"/>
  <flow id="f22" type="passenger" from="edge_E_in" to="edge_W_out" begin="30600" end="31500" vehsPerHour="356.0" departLane="best" departSpeed="max"/>
  <flow id="f23" type="passenger" from="edge_W_in" to="edge_E_out" begin="30600" end="31500" vehsPerHour="248.0" departLane="best" departSpeed="max"/>
  <flow id="f24" type="passenger" from="edge_N_in" to="edge_S_out" begin="31500" end="32400" vehsPerHour="732.0" departLane="best" departSpeed="max"/>
  <flow id="f25" type="passenger" from="edge_S_in" to="edge_N_out" begin="31500" end="32400" vehsPerHour="560.0" departLane="best" departSpeed="max"/>
  <flow id="f26" type="passenger" from="edge_E_in" to="edge_W_out" begin="31500" end="32400" vehsPerHour="372.0" departLane="best" departSpeed="max"/>
  <flow id="f27" type="passenger" from="edge_W_in" to="edge_E_out" begin="31500" end="32400" vehsPerHour="240.0" departLane="best" departSpeed="max"/>
  <flow id="f28" type="passenger" from="edge_N_in" to="edge_S_out" begin="32400" end="33300" vehsPerHour="564.0" departLane="best" departSpeed="max"/>
  <flow id="f29" type="passenger" from="edge_S_in" to="edge_N_out" begin="32400" end="33300" vehsPerHour="500.0" departLane="best" departSpeed="max"/>
  <flow id="f30" type="passenger" from="edge_E_in" to="edge_W_out" begin="32400" end="33300" vehsPerHour="372.0" departLane="best" departSpeed="max"/>
  <flow id="f31" type="passenger" from="edge_W_in" to="edge_E_out" begin="32400" end="33300" vehsPerHour="284.0" departLane="best" departSpeed="max"/>
  <flow id="f32" type="passenger" from="edge_N_in" to="edge_S_out" begin="33300" end="34200" vehsPerHour="416.0" departLane="best" departSpeed="max"/>
  <flow id="f33" type="passenger" from="edge_S_in" to="edge_N_out" begin="33300" end="34200" vehsPerHour="332.0" departLane="best" departSpeed="max"/>
  <flow id="f34" type="passenger" from="edge_E_in" to="edge_W_out" begin="33300" end="34200" vehsPerHour="256.0" departLane="best" departSpeed="max"/>
  <flow id="f35" type="passenger" from="edge_W_in" to="edge_E_out" begin="33300" end="34200" vehsPerHour="292.0" departLane="best" departSpeed="max"/>
  <flow id="f36" type="passenger" from="edge_N_in" to="edge_S_out" begin="36000" end="36900" vehsPerHour="248.0" departLane="best" departSpeed="max"/>
  <flow id="f37" type="passenger" from="edge_S_in" to="edge_N_out" begin="36000" end="36900" vehsPerHour="276.0" departLane="best" departSpeed="max"/>
  <flow id="f38" type="passenger" from="edge_E_in" to="edge_W_out" begin="36000" end="36900" vehsPerHour="228.0" departLane="best" departSpeed="max"/>
  <flow id="f39" type="passenger" from="edge_W_in" to="edge_E_out" begin="36000" end="36900" vehsPerHour="216.0" departLane="best" departSpeed="max"/>
  <flow id="f40" type="passenger" from="edge_N_in" to="edge_S_out" begin="36900" end="37800" vehsPerHour="376.0" departLane="best" departSpeed="max"/>
  <flow id="f41" type="passenger" from="edge_S_in" to="edge_N_out" begin="36900" end="37800" vehsPerHour="304.0" departLane="best" departSpeed="max"/>
  <flow id="f42" type="passenger" from="edge_E_in" to="edge_W_out" begin="36900" end="37800" vehsPerHour="304.0" departLane="best" departSpeed="max"/>
  <flow id="f43" type="passenger" from="edge_W_in" to="edge_E_out" begin="36900" end="37800" vehsPerHour="296.0" departLane="best" departSpeed="max"/>
  <flow id="f44" type="passenger" from="edge_N_in" to="edge_S_out" begin="37800" end="38700" vehsPerHour="444.0" departLane="best" departSpeed="max"/>
  <flow id="f45" type="passenger" from="edge_S_in" to="edge_N_out" begin="37800" end="38700" vehsPerHour="316.0" departLane="best" departSpeed="max"/>
  <flow id="f46" type="passenger" from="edge_E_in" to="edge_W_out" begin="37800" end="38700" vehsPerHour="348.0" departLane="best" departSpeed="max"/>
  <flow id="f47" type="passenger" from="edge_W_in" to="edge_E_out" begin="37800" end="38700" vehsPerHour="288.0" departLane="best" departSpeed="max"/>
  <flow id="f48" type="passenger" from="edge_N_in" to="edge_S_out" begin="38700" end="39600" vehsPerHour="412.0" departLane="best" departSpeed="max"/>
  <flow id="f49" type="passenger" from="edge_S_in" to="edge_N_out" begin="38700" end="39600" vehsPerHour="408.0" departLane="best" departSpeed="max"/>
  <flow id="f50" type="passenger" from="edge_E_in" to="edge_W_out" begin="38700" end="39600" vehsPerHour="184.0" departLane="best" departSpeed="max"/>
  <flow id="f51" type="passenger" from="edge_W_in" to="edge_E_out" begin="38700" end="39600" vehsPerHour="212.0" departLane="best" departSpeed="max"/>
  <flow id="f52" type="passenger" from="edge_N_in" to="edge_S_out" begin="39600" end="40500" vehsPerHour="336.0" departLane="best" departSpeed="max"/>
  <flow id="f53" type="passenger" from="edge_S_in" to="edge_N_out" begin="39600" end="40500" vehsPerHour="368.0" departLane="best" departSpeed="max"/>
  <flow id="f54" type="passenger" from="edge_E_in" to="edge_W_out" begin="39600" end="40500" vehsPerHour="296.0" departLane="best" departSpeed="max"/>
  <flow id="f55" type="passenger" from="edge_W_in" to="edge_E_out" begin="39600" end="40500" vehsPerHour="204.0" departLane="best" departSpeed="max"/>
  <flow id="f56" type="passenger" from="edge_N_in" to="edge_S_out" begin="40500" end="41400" vehsPerHour="248.0" departLane="best" departSpeed="max"/>
  <flow id="f57" type="passenger" from="edge_S_in" to="edge_N_out" begin="40500" end="41400" vehsPerHour="180.0" departLane="best" departSpeed="max"/>
  <flow id="f58" type="passenger" from="edge_E_in" to="edge_W_out" begin="40500" end="41400" vehsPerHour="192.0" departLane="best" departSpeed="max"/>
  <flow id="f59" type="passenger" from="edge_W_in" to="edge_E_out" begin="40500" end="41400" vehsPerHour="148.0" departLane="best" departSpeed="max"/>
  <flow id="f60" type="passenger" from="edge_N_in" to="edge_S_out" begin="41400" end="42300" vehsPerHour="348.0" departLane="best" departSpeed="max"/>
  <flow id="f61" type="passenger" from="edge_S_in" to="edge_N_out" begin="41400" end="42300" vehsPerHour="228.0" departLane="best" departSpeed="max"/>
  <flow id="f62" type="passenger" from="edge_E_in" to="edge_W_out" begin="41400" end="42300" vehsPerHour="156.0" departLane="best" departSpeed="max"/>
  <flow id="f63" type="passenger" from="edge_W_in" to="edge_E_out" begin="41400" end="42300" vehsPerHour="192.0" departLane="best" departSpeed="max"/>
  <flow id="f64" type="passenger" from="edge_N_in" to="edge_S_out" begin="42300" end="43200" vehsPerHour="324.0" departLane="best" departSpeed="max"/>
  <flow id="f65" type="passenger" from="edge_S_in" to="edge_N_out" begin="42300" end="43200" vehsPerHour="256.0" departLane="best" departSpeed="max"/>
  <flow id="f66" type="passenger" from="edge_E_in" to="edge_W_out" begin="42300" end="43200" vehsPerHour="240.0" departLane="best" departSpeed="max"/>
  <flow id="f67" type="passenger" from="edge_W_in" to="edge_E_out" begin="42300" end="43200" vehsPerHour="156.0" departLane="best" departSpeed="max"/>
  <flow id="f68" type="passenger" from="edge_N_in" to="edge_S_out" begin="46800" end="47700" vehsPerHour="332.0" departLane="best" departSpeed="max"/>
  <flow id="f69" type="passenger" from="edge_S_in" to="edge_N_out" begin="46800" end="47700" vehsPerHour="328.0" departLane="best" departSpeed="max"/>
  <flow id="f70" type="passenger" from="edge_E_in" to="edge_W_out" begin="46800" end="47700" vehsPerHour="224.0" departLane="best" departSpeed="max"/>
  <flow id="f71" type="passenger" from="edge_W_in" to="edge_E_out" begin="46800" end="47700" vehsPerHour="248.0" departLane="best" departSpeed="max"/>
  <flow id="f72" type="passenger" from="edge_N_in" to="edge_S_out" begin="47700" end="48600" vehsPerHour="288.0" departLane="best" departSpeed="max"/>
  <flow id="f73" type="passenger" from="edge_S_in" to="edge_N_out" begin="47700" end="48600" vehsPerHour="344.0" departLane="best" departSpeed="max"/>
  <flow id="f74" type="passenger" from="edge_E_in" to="edge_W_out" begin="47700" end="48600" vehsPerHour="304.0" departLane="best" departSpeed="max"/>
  <flow id="f75" type="passenger" from="edge_W_in" to="edge_E_out" begin="47700" end="48600" vehsPerHour="236.0" departLane="best" departSpeed="max"/>
  <flow id="f76" type="passenger" from="edge_N_in" to="edge_S_out" begin="48600" end="49500" vehsPerHour="232.0" departLane="best" departSpeed="max"/>
  <flow id="f77" type="passenger" from="edge_S_in" to="edge_N_out" begin="48600" end="49500" vehsPerHour="324.0" departLane="best" departSpeed="max"/>
  <flow id="f78" type="passenger" from="edge_E_in" to="edge_W_out" begin="48600" end="49500" vehsPerHour="204.0" departLane="best" departSpeed="max"/>
  <flow id="f79" type="passenger" from="edge_W_in" to="edge_E_out" begin="48600" end="49500" vehsPerHour="224.0" departLane="best" departSpeed="max"/>
  <flow id="f80" type="passenger" from="edge_N_in" to="edge_S_out" begin="49500" end="50400" vehsPerHour="200.0" departLane="best" departSpeed="max"/>
  <flow id="f81" type="passenger" from="edge_S_in" to="edge_N_out" begin="49500" end="50400" vehsPerHour="236.0" departLane="best" departSpeed="max"/>
  <flow id="f82" type="passenger" from="edge_E_in" to="edge_W_out" begin="49500" end="50400" vehsPerHour="244.0" departLane="best" departSpeed="max"/>
  <flow id="f83" type="passenger" from="edge_W_in" to="edge_E_out" begin="49500" end="50400" vehsPerHour="140.0" departLane="best" departSpeed="max"/>
  <flow id="f84" type="passenger" from="edge_N_in" to="edge_S_out" begin="50400" end="51300" vehsPerHour="336.0" departLane="best" departSpeed="max"/>
  <flow id="f85" type="passenger" from="edge_S_in" to="edge_N_out" begin="50400" end="51300" vehsPerHour="336.0" departLane="best" departSpeed="max"/>
  <flow id="f86" type="passenger" from="edge_E_in" to="edge_W_out" begin="50400" end="51300" vehsPerHour="168.0" departLane="best" departSpeed="max"/>
  <flow id="f87" type="passenger" from="edge_W_in" to="edge_E_out" begin="50400" end="51300" vehsPerHour="136.0" departLane="best" departSpeed="max"/>
  <flow id="f88" type="passenger" from="edge_N_in" to="edge_S_out" begin="51300" end="52200" vehsPerHour="320.0" departLane="best" departSpeed="max"/>
  <flow id="f89" type="passenger" from="edge_S_in" to="edge_N_out" begin="51300" end="52200" vehsPerHour="292.0" departLane="best" departSpeed="max"/>
  <flow id="f90" type="passenger" from="edge_E_in" to="edge_W_out" begin="51300" end="52200" vehsPerHour="276.0" departLane="best" departSpeed="max"/>
  <flow id="f91" type="passenger" from="edge_W_in" to="edge_E_out" begin="51300" end="52200" vehsPerHour="176.0" departLane="best" departSpeed="max"/>
  <flow id="f92" type="passenger" from="edge_N_in" to="edge_S_out" begin="52200" end="53100" vehsPerHour="272.0" departLane="best" departSpeed="max"/>
  <flow id="f93" type="passenger" from="edge_S_in" to="edge_N_out" begin="52200" end="53100" vehsPerHour="272.0" departLane="best" departSpeed="max"/>
  <flow id="f94" type="passenger" from="edge_E_in" to="edge_W_out" begin="52200" end="53100" vehsPerHour="248.0" departLane="best" departSpeed="max"/>
  <flow id="f95" type="passenger" from="edge_W_in" to="edge_E_out" begin="52200" end="53100" vehsPerHour="160.0" departLane="best" departSpeed="max"/>
  <flow id="f96" type="passenger" from="edge_N_in" to="edge_S_out" begin="53100" end="54000" vehsPerHour="224.0" departLane="best" departSpeed="max"/>
  <flow id="f97" type="passenger" from="edge_S_in" to="edge_N_out" begin="53100" end="54000" vehsPerHour="252.0" departLane="best" departSpeed="max"/>
  <flow id="f98" type="passenger" from="edge_E_in" to="edge_W_out" begin="53100" end="54000" vehsPerHour="164.0" departLane="best" departSpeed="max"/>
  <flow id="f99" type="passenger" from="edge_W_in" to="edge_E_out" begin="53100" end="54000" vehsPerHour="180.0" departLane="best" departSpeed="max"/>
  <flow id="f100" type="passenger" from="edge_N_in" to="edge_S_out" begin="57600" end="58500" vehsPerHour="172.0" departLane="best" departSpeed="max"/>
  <flow id="f101" type="passenger" from="edge_S_in" to="edge_N_out" begin="57600" end="58500" vehsPerHour="192.0" departLane="best" departSpeed="max"/>
  <flow id="f102" type="passenger" from="edge_E_in" to="edge_W_out" begin="57600" end="58500" vehsPerHour="244.0" departLane="best" departSpeed="max"/>
  <flow id="f103" type="passenger" from="edge_W_in" to="edge_E_out" begin="57600" end="58500" vehsPerHour="160.0" departLane="best" departSpeed="max"/>
  <flow id="f104" type="passenger" from="edge_N_in" to="edge_S_out" begin="58500" end="59400" vehsPerHour="280.0" departLane="best" departSpeed="max"/>
  <flow id="f105" type="passenger" from="edge_S_in" to="edge_N_out" begin="58500" end="59400" vehsPerHour="236.0" departLane="best" departSpeed="max"/>
  <flow id="f106" type="passenger" from="edge_E_in" to="edge_W_out" begin="58500" end="59400" vehsPerHour="240.0" departLane="best" departSpeed="max"/>
  <flow id="f107" type="passenger" from="edge_W_in" to="edge_E_out" begin="58500" end="59400" vehsPerHour="168.0" departLane="best" departSpeed="max"/>
  <flow id="f108" type="passenger" from="edge_N_in" to="edge_S_out" begin="59400" end="60300" vehsPerHour="308.0" departLane="best" departSpeed="max"/>
  <flow id="f109" type="passenger" from="edge_S_in" to="edge_N_out" begin="59400" end="60300" vehsPerHour="228.0" departLane="best" departSpeed="max"/>
  <flow id="f110" type="passenger" from="edge_E_in" to="edge_W_out" begin="59400" end="60300" vehsPerHour="172.0" departLane="best" departSpeed="max"/>
  <flow id="f111" type="passenger" from="edge_W_in" to="edge_E_out" begin="59400" end="60300" vehsPerHour="260.0" departLane="best" departSpeed="max"/>
  <flow id="f112" type="passenger" from="edge_N_in" to="edge_S_out" begin="60300" end="61200" vehsPerHour="340.0" departLane="best" departSpeed="max"/>
  <flow id="f113" type="passenger" from="edge_S_in" to="edge_N_out" begin="60300" end="61200" vehsPerHour="344.0" departLane="best" departSpeed="max"/>
  <flow id="f114" type="passenger" from="edge_E_in" to="edge_W_out" begin="60300" end="61200" vehsPerHour="340.0" departLane="best" departSpeed="max"/>
  <flow id="f115" type="passenger" from="edge_W_in" to="edge_E_out" begin="60300" end="61200" vehsPerHour="144.0" departLane="best" departSpeed="max"/>
  <flow id="f116" type="passenger" from="edge_N_in" to="edge_S_out" begin="61200" end="62100" vehsPerHour="328.0" departLane="best" departSpeed="max"/>
  <flow id="f117" type="passenger" from="edge_S_in" to="edge_N_out" begin="61200" end="62100" vehsPerHour="200.0" departLane="best" departSpeed="max"/>
  <flow id="f118" type="passenger" from="edge_E_in" to="edge_W_out" begin="61200" end="62100" vehsPerHour="216.0" departLane="best" departSpeed="max"/>
  <flow id="f119" type="passenger" from="edge_W_in" to="edge_E_out" begin="61200" end="62100" vehsPerHour="216.0" departLane="best" departSpeed="max"/>
  <flow id="f120" type="passenger" from="edge_N_in" to="edge_S_out" begin="62100" end="63000" vehsPerHour="252.0" departLane="best" departSpeed="max"/>
  <flow id="f121" type="passenger" from="edge_S_in" to="edge_N_out" begin="62100" end="63000" vehsPerHour="264.0" departLane="best" departSpeed="max"/>
  <flow id="f122" type="passenger" from="edge_E_in" to="edge_W_out" begin="62100" end="63000" vehsPerHour="256.0" departLane="best" departSpeed="max"/>
  <flow id="f123" type="passenger" from="edge_W_in" to="edge_E_out" begin="62100" end="63000" vehsPerHour="136.0" departLane="best" departSpeed="max"/>
  <flow id="f124" type="passenger" from="edge_N_in" to="edge_S_out" begin="63000" end="63900" vehsPerHour="248.0" departLane="best" departSpeed="max"/>
  <flow id="f125" type="passenger" from="edge_S_in" to="edge_N_out" begin="63000" end="63900" vehsPerHour="424.0" departLane="best" departSpeed="max"/>
  <flow id="f126" type="passenger" from="edge_E_in" to="edge_W_out" begin="63000" end="63900" vehsPerHour="352.0" departLane="best" departSpeed="max"/>
  <flow id="f127" type="passenger" from="edge_W_in" to="edge_E_out" begin="63000" end="63900" vehsPerHour="188.0" departLane="best" departSpeed="max"/>
  <flow id="f128" type="passenger" from="edge_N_in" to="edge_S_out" begin="63900" end="64800" vehsPerHour="340.0" departLane="best" departSpeed="max"/>
  <flow id="f129" type="passenger" from="edge_S_in" to="edge_N_out" begin="63900" end="64800" vehsPerHour="312.0" departLane="best" departSpeed="max"/>
  <flow id="f130" type="passenger" from="edge_E_in" to="edge_W_out" begin="63900" end="64800" vehsPerHour="292.0" departLane="best" departSpeed="max"/>
  <flow id="f131" type="passenger" from="edge_W_in" to="edge_E_out" begin="63900" end="64800" vehsPerHour="260.0" departLane="best" departSpeed="max"/>
  <flow id="f132" type="passenger" from="edge_N_in" to="edge_S_out" begin="64800" end="65700" vehsPerHour="340.0" departLane="best" departSpeed="max"/>
  <flow id="f133" type="passenger" from="edge_S_in" to="edge_N_out" begin="64800" end="65700" vehsPerHour="312.0" departLane="best" departSpeed="max"/>
  <flow id="f134" type="passenger" from="edge_E_in" to="edge_W_out" begin="64800" end="65700" vehsPerHour="292.0" departLane="best" departSpeed="max"/>
  <flow id="f135" type="passenger" from="edge_W_in" to="edge_E_out" begin="64800" end="65700" vehsPerHour="260.0" departLane="best" departSpeed="max"/>
  <flow id="f136" type="passenger" from="edge_N_in" to="edge_S_out" begin="65700" end="66600" vehsPerHour="325.7" departLane="best" departSpeed="max"/>
  <flow id="f137" type="passenger" from="edge_S_in" to="edge_N_out" begin="65700" end="66600" vehsPerHour="299.0" departLane="best" departSpeed="max"/>
  <flow id="f138" type="passenger" from="edge_E_in" to="edge_W_out" begin="65700" end="66600" vehsPerHour="279.8" departLane="best" departSpeed="max"/>
  <flow id="f139" type="passenger" from="edge_W_in" to="edge_E_out" begin="65700" end="66600" vehsPerHour="249.2" departLane="best" departSpeed="max"/>
  <flow id="f140" type="passenger" from="edge_N_in" to="edge_S_out" begin="66600" end="67500" vehsPerHour="311.5" departLane="best" departSpeed="max"/>
  <flow id="f141" type="passenger" from="edge_S_in" to="edge_N_out" begin="66600" end="67500" vehsPerHour="285.9" departLane="best" departSpeed="max"/>
  <flow id="f142" type="passenger" from="edge_E_in" to="edge_W_out" begin="66600" end="67500" vehsPerHour="267.7" departLane="best" departSpeed="max"/>
  <flow id="f143" type="passenger" from="edge_W_in" to="edge_E_out" begin="66600" end="67500" vehsPerHour="238.4" departLane="best" departSpeed="max"/>
  <flow id="f144" type="passenger" from="edge_N_in" to="edge_S_out" begin="67500" end="68400" vehsPerHour="297.2" departLane="best" departSpeed="max"/>
  <flow id="f145" type="passenger" from="edge_S_in" to="edge_N_out" begin="67500" end="68400" vehsPerHour="272.9" departLane="best" departSpeed="max"/>
  <flow id="f146" type="passenger" from="edge_E_in" to="edge_W_out" begin="67500" end="68400" vehsPerHour="255.5" departLane="best" departSpeed="max"/>
  <flow id="f147" type="passenger" from="edge_W_in" to="edge_E_out" begin="67500" end="68400" vehsPerHour="227.7" departLane="best" departSpeed="max"/>
  <flow id="f148" type="passenger" from="edge_N_in" to="edge_S_out" begin="68400" end="69300" vehsPerHour="283.0" departLane="best" departSpeed="max"/>
  <flow id="f149" type="passenger" from="edge_S_in" to="edge_N_out" begin="68400" end="69300" vehsPerHour="259.8" departLane="best" departSpeed="max"/>
  <flow id="f150" type="passenger" from="edge_E_in" to="edge_W_out" begin="68400" end="69300" vehsPerHour="243.3" departLane="best" departSpeed="max"/>
  <flow id="f151" type="passenger" from="edge_W_in" to="edge_E_out" begin="68400" end="69300" vehsPerHour="216.9" departLane="best" departSpeed="max"/>
  <flow id="f152" type="passenger" from="edge_N_in" to="edge_S_out" begin="69300" end="70200" vehsPerHour="268.7" departLane="best" departSpeed="max"/>
  <flow id="f153" type="passenger" from="edge_S_in" to="edge_N_out" begin="69300" end="70200" vehsPerHour="246.8" departLane="best" departSpeed="max"/>
  <flow id="f154" type="passenger" from="edge_E_in" to="edge_W_out" begin="69300" end="70200" vehsPerHour="231.1" departLane="best" departSpeed="max"/>
  <flow id="f155" type="passenger" from="edge_W_in" to="edge_E_out" begin="69300" end="70200" vehsPerHour="206.1" departLane="best" departSpeed="max"/>
  <flow id="f156" type="passenger" from="edge_N_in" to="edge_S_out" begin="70200" end="71100" vehsPerHour="254.4" departLane="best" departSpeed="max"/>
  <flow id="f157" type="passenger" from="edge_S_in" to="edge_N_out" begin="70200" end="71100" vehsPerHour="233.7" departLane="best" departSpeed="max"/>
  <flow id="f158" type="passenger" from="edge_E_in" to="edge_W_out" begin="70200" end="71100" vehsPerHour="219.0" departLane="best" departSpeed="max"/>
  <flow id="f159" type="passenger" from="edge_W_in" to="edge_E_out" begin="70200" end="71100" vehsPerHour="195.3" departLane="best" departSpeed="max"/>
  <flow id="f160" type="passenger" from="edge_N_in" to="edge_S_out" begin="71100" end="72000" vehsPerHour="240.2" departLane="best" departSpeed="max"/>
  <flow id="f161" type="passenger" from="edge_S_in" to="edge_N_out" begin="71100" end="72000" vehsPerHour="220.7" departLane="best" departSpeed="max"/>
  <flow id="f162" type="passenger" from="edge_E_in" to="edge_W_out" begin="71100" end="72000" vehsPerHour="206.8" departLane="best" departSpeed="max"/>
  <flow id="f163" type="passenger" from="edge_W_in" to="edge_E_out" begin="71100" end="72000" vehsPerHour="184.5" departLane="best" departSpeed="max"/>
  <flow id="f164" type="passenger" from="edge_N_in" to="edge_S_out" begin="72000" end="72900" vehsPerHour="225.9" departLane="best" departSpeed="max"/>
  <flow id="f165" type="passenger" from="edge_S_in" to="edge_N_out" begin="72000" end="72900" vehsPerHour="207.7" departLane="best" departSpeed="max"/>
  <flow id="f166" type="passenger" from="edge_E_in" to="edge_W_out" begin="72000" end="72900" vehsPerHour="194.6" departLane="best" departSpeed="max"/>
  <flow id="f167" type="passenger" from="edge_W_in" to="edge_E_out" begin="72000" end="72900" vehsPerHour="173.7" departLane="best" departSpeed="max"/>
  <flow id="f168" type="passenger" from="edge_N_in" to="edge_S_out" begin="72900" end="73800" vehsPerHour="211.7" departLane="best" departSpeed="max"/>
  <flow id="f169" type="passenger" from="edge_S_in" to="edge_N_out" begin="72900" end="73800" vehsPerHour="194.6" departLane="best" departSpeed="max"/>
  <flow id="f170" type="passenger" from="edge_E_in" to="edge_W_out" begin="72900" end="73800" vehsPerHour="182.4" departLane="best" departSpeed="max"/>
  <flow id="f171" type="passenger" from="edge_W_in" to="edge_E_out" begin="72900" end="73800" vehsPerHour="163.0" departLane="best" departSpeed="max"/>
  <flow id="f172" type="passenger" from="edge_N_in" to="edge_S_out" begin="73800" end="74700" vehsPerHour="197.4" departLane="best" departSpeed="max"/>
  <flow id="f173" type="passenger" from="edge_S_in" to="edge_N_out" begin="73800" end="74700" vehsPerHour="181.6" departLane="best" departSpeed="max"/>
  <flow id="f174" type="passenger" from="edge_E_in" to="edge_W_out" begin="73800" end="74700" vehsPerHour="170.3" departLane="best" departSpeed="max"/>
  <flow id="f175" type="passenger" from="edge_W_in" to="edge_E_out" begin="73800" end="74700" vehsPerHour="152.2" departLane="best" departSpeed="max"/>
  <flow id="f176" type="passenger" from="edge_N_in" to="edge_S_out" begin="74700" end="75600" vehsPerHour="183.1" departLane="best" departSpeed="max"/>
  <flow id="f177" type="passenger" from="edge_S_in" to="edge_N_out" begin="74700" end="75600" vehsPerHour="168.5" departLane="best" departSpeed="max"/>
  <flow id="f178" type="passenger" from="edge_E_in" to="edge_W_out" begin="74700" end="75600" vehsPerHour="158.1" departLane="best" departSpeed="max"/>
  <flow id="f179" type="passenger" from="edge_W_in" to="edge_E_out" begin="74700" end="75600" vehsPerHour="141.4" departLane="best" departSpeed="max"/>
  <flow id="f180" type="passenger" from="edge_N_in" to="edge_S_out" begin="75600" end="76500" vehsPerHour="168.9" departLane="best" departSpeed="max"/>
  <flow id="f181" type="passenger" from="edge_S_in" to="edge_N_out" begin="75600" end="76500" vehsPerHour="155.5" departLane="best" departSpeed="max"/>
  <flow id="f182" type="passenger" from="edge_E_in" to="edge_W_out" begin="75600" end="76500" vehsPerHour="145.9" departLane="best" departSpeed="max"/>
  <flow id="f183" type="passenger" from="edge_W_in" to="edge_E_out" begin="75600" end="76500" vehsPerHour="130.6" departLane="best" departSpeed="max"/>
  <flow id="f184" type="passenger" from="edge_N_in" to="edge_S_out" begin="76500" end="77400" vehsPerHour="154.6" departLane="best" departSpeed="max"/>
  <flow id="f185" type="passenger" from="edge_S_in" to="edge_N_out" begin="76500" end="77400" vehsPerHour="142.4" departLane="best" departSpeed="max"/>
  <flow id="f186" type="passenger" from="edge_E_in" to="edge_W_out" begin="76500" end="77400" vehsPerHour="133.7" departLane="best" departSpeed="max"/>
  <flow id="f187" type="passenger" from="edge_W_in" to="edge_E_out" begin="76500" end="77400" vehsPerHour="119.8" departLane="best" departSpeed="max"/>
  <flow id="f188" type="passenger" from="edge_N_in" to="edge_S_out" begin="77400" end="78300" vehsPerHour="140.3" departLane="best" departSpeed="max"/>
  <flow id="f189" type="passenger" from="edge_S_in" to="edge_N_out" begin="77400" end="78300" vehsPerHour="129.4" departLane="best" departSpeed="max"/>
  <flow id="f190" type="passenger" from="edge_E_in" to="edge_W_out" begin="77400" end="78300" vehsPerHour="121.6" departLane="best" departSpeed="max"/>
  <flow id="f191" type="passenger" from="edge_W_in" to="edge_E_out" begin="77400" end="78300" vehsPerHour="109.0" departLane="best" departSpeed="max"/>
  <flow id="f192" type="passenger" from="edge_N_in" to="edge_S_out" begin="78300" end="79200" vehsPerHour="126.1" departLane="best" departSpeed="max"/>
  <flow id="f193" type="passenger" from="edge_S_in" to="edge_N_out" begin="78300" end="79200" vehsPerHour="116.3" departLane="best" departSpeed="max"/>
  <flow id="f194" type="passenger" from="edge_E_in" to="edge_W_out" begin="78300" end="79200" vehsPerHour="109.4" departLane="best" departSpeed="max"/>
  <flow id="f195" type="passenger" from="edge_W_in" to="edge_E_out" begin="78300" end="79200" vehsPerHour="98.3" departLane="best" departSpeed="max"/>