<?xml version="1.0" encoding="UTF-8"?>
<routes xmlns:xsi="http://www.w3.org/2001/XMLSchema-instance" xsi:noNamespaceSchemaLocation="http://sumo.dlr.de/xsd/routes_file.xsd">
  <vType id="passenger" accel="2.6" decel="4.5" sigma="0.5" length="5" maxSpeed="13.89"/>
  <flow id="f0" type="passenger" from="edge_E_in" to="edge_S_out" begin="0" end="27000" vehsPerHour="1.0" departLane="best" departSpeed="max"/>
  <flow id="f1" type="passenger" from="edge_E_in" to="edge_N_out" begin="0" end="27000" vehsPerHour="1.0" departLane="best" departSpeed="max"/>
  <flow id="f2" type="passenger" from="edge_E_in" to="edge_W_out" begin="0" end="27000" vehsPerHour="1.0" departLane="best" departSpeed="max"/>
  <flow id="f3" type="passenger" from="edge_N_in" to="edge_E_out" begin="0" end="27000" vehsPerHour="1.0" departLane="best" departSpeed="max"/>
  <flow id="f4" type="passenger" from="edge_N_in" to="edge_W_out" begin="0" end="27000" vehsPerHour="1.0" departLane="best" departSpeed="max"/>
  <flow id="f5" type="passenger" from="edge_N_in" to="edge_S_out" begin="0" end="27000" vehsPerHour="1.0" departLane="best" departSpeed="max"/>
  <flow id="f6" type="passenger" from="edge_S_in" to="edge_W_out" begin="0" end="27000" vehsPerHour="1.0" departLane="best" departSpeed="max"/>
  <flow id="f7" type="passenger" from="edge_S_in" to="edge_E_out" begin="0" end="27000" vehsPerHour="1.0" departLane="best" departSpeed="max"/>
  <flow id="f8" type="passenger" from="edge_S_in" to="edge_N_out" begin="0" end="27000" vehsPerHour="1.0" departLane="best" departSpeed="max"/>
  <flow id="f9" type="passenger" from="edge_W_in" to="edge_N_out" begin="0" end="27000" vehsPerHour="1.0" departLane="best" departSpeed="max"/>
  <flow id="f10" type="passenger" from="edge_W_in" to="edge_S_out" begin="0" end="27000" vehsPerHour="1.0" departLane="best" departSpeed="max"/>
  <flow id="f11" type="passenger" from="edge_W_in" to="edge_E_out" begin="0" end="27000" vehsPerHour="1.0" departLane="best" departSpeed="max"/>
  <flow id="f12" type="passenger" from="edge_E_in" to="edge_S_out" begin="27000" end="27180" vehsPerHour="66.3" departLane="best" departSpeed="max"/>
  <flow id="f13" type="passenger" from="edge_E_in" to="edge_S_out" begin="27180" end="27360" vehsPerHour="28.4" departLane="best" departSpeed="max"/>
  <flow id="f14" type="passenger" from="edge_E_in" to="edge_S_out" begin="27360" end="27540" vehsPerHour="71.1" departLane="best" departSpeed="max"/>
  <flow id="f15" type="passenger" from="edge_E_in" to="edge_S_out" begin="27540" end="27720" vehsPerHour="26.4" departLane="best" departSpeed="max"/>
  <flow id="f16" type="passenger" from="edge_E_in" to="edge_S_out" begin="27720" end="27900" vehsPerHour="47.8" departLane="best" departSpeed="max"/>
  <flow id="f17" type="passenger" from="edge_E_in" to="edge_N_out" begin="27000" end="27180" vehsPerHour="63.8" departLane="best" departSpeed="max"/>
  <flow id="f18" type="passenger" from="edge_E_in" to="edge_N_out" begin="27180" end="27360" vehsPerHour="125.4" departLane="best" departSpeed="max"/>
  <flow id="f19" type="passenger" from="edge_E_in" to="edge_N_out" begin="27360" end="27540" vehsPerHour="157.9" departLane="best" departSpeed="max"/>
  <flow id="f20" type="passenger" from="edge_E_in" to="edge_N_out" begin="27540" end="27720" vehsPerHour="58.5" departLane="best" departSpeed="max"/>
  <flow id="f21" type="passenger" from="edge_E_in" to="edge_N_out" begin="27720" end="27900" vehsPerHour="134.5" departLane="best" departSpeed="max"/>
  <flow id="f22" type="passenger" from="edge_E_in" to="edge_W_out" begin="27000" end="27180" vehsPerHour="250.1" departLane="best" departSpeed="max"/>
  <flow id="f23" type="passenger" from="edge_E_in" to="edge_W_out" begin="27180" end="27360" vehsPerHour="675.2" departLane="best" departSpeed="max"/>
  <flow id="f24" type="passenger" from="edge_E_in" to="edge_W_out" begin="27360" end="27540" vehsPerHour="432.9" departLane="best" departSpeed="max"/>
  <flow id="f25" type="passenger" from="edge_E_in" to="edge_W_out" begin="27540" end="27720" vehsPerHour="391.1" departLane="best" departSpeed="max"/>
  <flow id="f26" type="passenger" from="edge_E_in" to="edge_W_out" begin="27720" end="27900" vehsPerHour="250.8" departLane="best" departSpeed="max"/>
  <flow id="f27" type="passenger" from="edge_N_in" to="edge_E_out" begin="27000" end="27180" vehsPerHour="64.2" departLane="best" departSpeed="max"/>
  <flow id="f28" type="passenger" from="edge_N_in" to="edge_E_out" begin="27180" end="27360" vehsPerHour="173.4" departLane="best" departSpeed="max"/>
  <flow id="f29" type="passenger" from="edge_N_in" to="edge_E_out" begin="27360" end="27540" vehsPerHour="82.4" departLane="best" departSpeed="max"/>
  <flow id="f30" type="passenger" from="edge_N_in" to="edge_E_out" begin="27540" end="27720" vehsPerHour="72.0" departLane="best" departSpeed="max"/>
  <flow id="f31" type="passenger" from="edge_N_in" to="edge_E_out" begin="27720" end="27900" vehsPerHour="128.1" departLane="best" departSpeed="max"/>
  <flow id="f32" type="passenger" from="edge_N_in" to="edge_W_out" begin="27000" end="27180" vehsPerHour="61.8" departLane="best" departSpeed="max"/>
  <flow id="f33" type="passenger" from="edge_N_in" to="edge_W_out" begin="27180" end="27360" vehsPerHour="90.0" departLane="best" departSpeed="max"/>
  <flow id="f34" type="passenger" from="edge_N_in" to="edge_W_out" begin="27360" end="27540" vehsPerHour="33.3" departLane="best" departSpeed="max"/>
  <flow id="f35" type="passenger" from="edge_N_in" to="edge_W_out" begin="27540" end="27720" vehsPerHour="40.1" departLane="best" departSpeed="max"/>
  <flow id="f36" type="passenger" from="edge_N_in" to="edge_W_out" begin="27720" end="27900" vehsPerHour="54.8" departLane="best" departSpeed="max"/>
  <flow id="f37" type="passenger" from="edge_N_in" to="edge_S_out" begin="27000" end="27180" vehsPerHour="632.0" departLane="best" departSpeed="max"/>
  <flow id="f38" type="passenger" from="edge_N_in" to="edge_S_out" begin="27180" end="27360" vehsPerHour="632.0" departLane="best" departSpeed="max"/>
  <flow id="f39" type="passenger" from="edge_N_in" to="edge_S_out" begin="27360" end="27540" vehsPerHour="632.0" departLane="best" departSpeed="max"/>
  <flow id="f40" type="passenger" from="edge_N_in" to="edge_S_out" begin="27540" end="27720" vehsPerHour="632.0" departLane="best" departSpeed="max"/>
  <flow id="f41" type="passenger" from="edge_N_in" to="edge_S_out" begin="27720" end="27900" vehsPerHour="632.0" departLane="best" departSpeed="max"/>
  <flow id="f42" type="passenger" from="edge_S_in" to="edge_W_out" begin="27000" end="27180" vehsPerHour="44.8" departLane="best" departSpeed="max"/>
  <flow id="f43" type="passenger" from="edge_S_in" to="edge_W_out" begin="27180" end="27360" vehsPerHour="58.9" departLane="best" departSpeed="max"/>
  <flow id="f44" type="passenger" from="edge_S_in" to="edge_W_out" begin="27360" end="27540" vehsPerHour="78.2" departLane="best" departSpeed="max"/>
  <flow id="f45" type="passenger" from="edge_S_in" to="edge_W_out" begin="27540" end="27720" vehsPerHour="121.0" departLane="best" departSpeed="max"/>
  <flow id="f46" type="passenger" from="edge_S_in" to="edge_W_out" begin="27720" end="27900" vehsPerHour="77.1" departLane="best" departSpeed="max"/>
  <flow id="f47" type="passenger" from="edge_S_in" to="edge_E_out" begin="27000" end="27180" vehsPerHour="23.4" departLane="best" departSpeed="max"/>
  <flow id="f48" type="passenger" from="edge_S_in" to="edge_E_out" begin="27180" end="27360" vehsPerHour="15.9" departLane="best" departSpeed="max"/>
  <flow id="f49" type="passenger" from="edge_S_in" to="edge_E_out" begin="27360" end="27540" vehsPerHour="29.8" departLane="best" departSpeed="max"/>
  <flow id="f50" type="passenger" from="edge_S_in" to="edge_E_out" begin="27540" end="27720" vehsPerHour="43.0" departLane="best" departSpeed="max"/>
  <flow id="f51" type="passenger" from="edge_S_in" to="edge_E_out" begin="27720" end="27900" vehsPerHour="28.0" departLane="best" departSpeed="max"/>
  <flow id="f52" type="passenger" from="edge_S_in" to="edge_N_out" begin="27000" end="27180" vehsPerHour="233.9" departLane="best" departSpeed="max"/>
  <flow id="f53" type="passenger" from="edge_S_in" to="edge_N_out" begin="27180" end="27360" vehsPerHour="631.5" departLane="best" departSpeed="max"/>
  <flow id="f54" type="passenger" from="edge_S_in" to="edge_N_out" begin="27360" end="27540" vehsPerHour="619.9" departLane="best" departSpeed="max"/>
  <flow id="f55" type="passenger" from="edge_S_in" to="edge_N_out" begin="27540" end="27720" vehsPerHour="392.1" departLane="best" departSpeed="max"/>
  <flow id="f56" type="passenger" from="edge_S_in" to="edge_N_out" begin="27720" end="27900" vehsPerHour="362.5" departLane="best" departSpeed="max"/>
  <flow id="f57" type="passenger" from="edge_W_in" to="edge_N_out" begin="27000" end="27180" vehsPerHour="47.5" departLane="best" departSpeed="max"/>
  <flow id="f58" type="passenger" from="edge_W_in" to="edge_N_out" begin="27180" end="27360" vehsPerHour="33.8" departLane="best" departSpeed="max"/>
  <flow id="f59" type="passenger" from="edge_W_in" to="edge_N_out" begin="27360" end="27540" vehsPerHour="38.3" departLane="best" departSpeed="max"/>
  <flow id="f60" type="passenger" from="edge_W_in" to="edge_N_out" begin="27540" end="27720" vehsPerHour="17.6" departLane="best" departSpeed="max"/>
  <flow id="f61" type="passenger" from="edge_W_in" to="edge_N_out" begin="27720" end="27900" vehsPerHour="22.8" departLane="best" departSpeed="max"/>
  <flow id="f62" type="passenger" from="edge_W_in" to="edge_S_out" begin="27000" end="27180" vehsPerHour="71.3" departLane="best" departSpeed="max"/>
  <flow id="f63" type="passenger" from="edge_W_in" to="edge_S_out" begin="27180" end="27360" vehsPerHour="45.2" departLane="best" departSpeed="max"/>
  <flow id="f64" type="passenger" from="edge_W_in" to="edge_S_out" begin="27360" end="27540" vehsPerHour="69.4" departLane="best" departSpeed="max"/>
  <flow id="f65" type="passenger" from="edge_W_in" to="edge_S_out" begin="27540" end="27720" vehsPerHour="27.8" departLane="best" departSpeed="max"/>
  <flow id="f66" type="passenger" from="edge_W_in" to="edge_S_out" begin="27720" end="27900" vehsPerHour="26.4" departLane="best" departSpeed="max"/>
  <flow id="f67" type="passenger" from="edge_W_in" to="edge_E_out" begin="27000" end="27180" vehsPerHour="159.0" departLane="best" departSpeed="max"/>
  <flow id="f68" type="passenger" from="edge_W_in" to="edge_E_out" begin="27180" end="27360" vehsPerHour="268.1" departLane="best" departSpeed="max"/>
  <flow id="f69" type="passenger" from="edge_W_in" to="edge_E_out" begin="27360" end="27540" vehsPerHour="338.7" departLane="best" departSpeed="max"/>
  <flow id="f70" type="passenger" from="edge_W_in" to="edge_E_out" begin="27540" end="27720" vehsPerHour="429.3" departLane="best" departSpeed="max"/>
  <flow id="f71" type="passenger" from="edge_W_in" to="edge_E_out" begin="27720" end="27900" vehsPerHour="164.8" departLane="best" departSpeed="max"/>
  <flow id="f72" type="passenger" from="edge_E_in" to="edge_S_out" begin="27900" end="28080" vehsPerHour="56.9" departLane="best" departSpeed="max"/>
  <flow id="f73" type="passenger" from="edge_E_in" to="edge_S_out" begin="28080" end="28260" vehsPerHour="36.8" departLane="best" departSpeed="max"/>
  <flow id="f74" type="passenger" from="edge_E_in" to="edge_S_out" begin="28260" end="28440" vehsPerHour="55.6" departLane="best" departSpeed="max"/>
  <flow id="f75" type="passenger" from="edge_E_in" to="edge_S_out" begin="28440" end="28620" vehsPerHour="29.6" departLane="best" departSpeed="max"/>
  <flow id="f76" type="passenger" from="edge_E_in" to="edge_S_out" begin="28620" end="28800" vehsPerHour="21.1" departLane="best" departSpeed="max"/>
  <flow id="f77" type="passenger" from="edge_E_in" to="edge_N_out" begin="27900" end="28080" vehsPerHour="100.9" departLane="best" departSpeed="max"/>
  <flow id="f78" type="passenger" from="edge_E_in" to="edge_N_out" begin="28080" end="28260" vehsPerHour="97.4" departLane="best" departSpeed="max"/>
  <flow id="f79" type="passenger" from="edge_E_in" to="edge_N_out" begin="28260" end="28440" vehsPerHour="93.4" departLane="best" departSpeed="max"/>
  <flow id="f80" type="passenger" from="edge_E_in" to="edge_N_out" begin="28440" end="28620" vehsPerHour="213.6" departLane="best" departSpeed="max"/>
  <flow id="f81" type="passenger" from="edge_E_in" to="edge_N_out" begin="28620" end="28800" vehsPerHour="94.7" departLane="best" departSpeed="max"/>
  <flow id="f82" type="passenger" from="edge_E_in" to="edge_W_out" begin="27900" end="28080" vehsPerHour="415.8" departLane="best" departSpeed="max"/>
  <flow id="f83" type="passenger" from="edge_E_in" to="edge_W_out" begin="28080" end="28260" vehsPerHour="320.3" departLane="best" departSpeed="max"/>
  <flow id="f84" type="passenger" from="edge_E_in" to="edge_W_out" begin="28260" end="28440" vehsPerHour="601.7" departLane="best" departSpeed="max"/>
  <flow id="f85" type="passenger" from="edge_E_in" to="edge_W_out" begin="28440" end="28620" vehsPerHour="398.7" departLane="best" departSpeed="max"/>
  <flow id="f86" type="passenger" from="edge_E_in" to="edge_W_out" begin="28620" end="28800" vehsPerHour="843.6" departLane="best" departSpeed="max"/>
  <flow id="f87" type="passenger" from="edge_N_in" to="edge_E_out" begin="27900" end="28080" vehsPerHour="72.2" departLane="best" departSpeed="max"/>
  <flow id="f88" type="passenger" from="edge_N_in" to="edge_E_out" begin="28080" end="28260" vehsPerHour="101.7" departLane="best" departSpeed="max"/>
  <flow id="f89" type="passenger" from="edge_N_in" to="edge_E_out" begin="28260" end="28440" vehsPerHour="157.7" departLane="best" departSpeed="max"/>
  <flow id="f90" type="passenger" from="edge_N_in" to="edge_E_out" begin="28440" end="28620" vehsPerHour="194.9" departLane="best" departSpeed="max"/>
  <flow id="f91" type="passenger" from="edge_N_in" to="edge_E_out" begin="28620" end="28800" vehsPerHour="73.6" departLane="best" departSpeed="max"/>
  <flow id="f92" type="passenger" from="edge_N_in" to="edge_W_out" begin="27900" end="28080" vehsPerHour="105.4" departLane="best" departSpeed="max"/>
  <flow id="f93" type="passenger" from="edge_N_in" to="edge_W_out" begin="28080" end="28260" vehsPerHour="47.5" departLane="best" departSpeed="max"/>
  <flow id="f94" type="passenger" from="edge_N_in" to="edge_W_out" begin="28260" end="28440" vehsPerHour="91.6" departLane="best" departSpeed="max"/>
  <flow id="f95" type="passenger" from="edge_N_in" to="edge_W_out" begin="28440" end="28620" vehsPerHour="128.4" departLane="best" departSpeed="max"/>
  <flow id="f96" type="passenger" from="edge_N_in" to="edge_W_out" begin="28620" end="28800" vehsPerHour="67.0" departLane="best" departSpeed="max"/>
  <flow id="f97" type="passenger" from="edge_N_in" to="edge_S_out" begin="27900" end="28080" vehsPerHour="733.0" departLane="best" departSpeed="max"/>
  <flow id="f98" type="passenger" from="edge_N_in" to="edge_S_out" begin="28080" end="28260" vehsPerHour="1108.1" departLane="best" departSpeed="max"/>
  <flow id="f99" type="passenger" from="edge_N_in" to="edge_S_out" begin="28260" end="28440" vehsPerHour="699.9" departLane="best" departSpeed="max"/>
  <flow id="f100" type="passenger" from="edge_N_in" to="edge_S_out" begin="28440" end="28620" vehsPerHour="794.8" departLane="best" departSpeed="max"/>
  <flow id="f101" type="passenger" from="edge_N_in" to="edge_S_out" begin="28620" end="28800" vehsPerHour="1584.2" departLane="best" departSpeed="max"/>
  <flow id="f102" type="passenger" from="edge_S_in" to="edge_W_out" begin="27900" end="28080" vehsPerHour="175.7" departLane="best" departSpeed="max"/>
  <flow id="f103" type="passenger" from="edge_S_in" to="edge_W_out" begin="28080" end="28260" vehsPerHour="92.1" departLane="best" departSpeed="max"/>
  <flow id="f104" type="passenger" from="edge_S_in" to="edge_W_out" begin="28260" end="28440" vehsPerHour="93.5" departLane="best" departSpeed="max"/>
  <flow id="f105" type="passenger" from="edge_S_in" to="edge_W_out" begin="28440" end="28620" vehsPerHour="116.4" departLane="best" departSpeed="max"/>
  <flow id="f106" type="passenger" from="edge_S_in" to="edge_W_out" begin="28620" end="28800" vehsPerHour="82.3" departLane="best" departSpeed="max"/>
  <flow id="f107" type="passenger" from="edge_S_in" to="edge_E_out" begin="27900" end="28080" vehsPerHour="15.0" departLane="best" departSpeed="max"/>
  <flow id="f108" type="passenger" from="edge_S_in" to="edge_E_out" begin="28080" end="28260" vehsPerHour="10.0" departLane="best" departSpeed="max"/>
  <flow id="f109" type="passenger" from="edge_S_in" to="edge_E_out" begin="28260" end="28440" vehsPerHour="12.4" departLane="best" departSpeed="max"/>
  <flow id="f110" type="passenger" from="edge_S_in" to="edge_E_out" begin="28440" end="28620" vehsPerHour="16.5" departLane="best" departSpeed="max"/>
  <flow id="f111" type="passenger" from="edge_S_in" to="edge_E_out" begin="28620" end="28800" vehsPerHour="6.1" departLane="best" departSpeed="max"/>
  <flow id="f112" type="passenger" from="edge_S_in" to="edge_N_out" begin="27900" end="28080" vehsPerHour="844.4" departLane="best" departSpeed="max"/>
  <flow id="f113" type="passenger" from="edge_S_in" to="edge_N_out" begin="28080" end="28260" vehsPerHour="441.3" departLane="best" departSpeed="max"/>
  <flow id="f114" type="passenger" from="edge_S_in" to="edge_N_out" begin="28260" end="28440" vehsPerHour="1056.6" departLane="best" departSpeed="max"/>
  <flow id="f115" type="passenger" from="edge_S_in" to="edge_N_out" begin="28440" end="28620" vehsPerHour="906.5" departLane="best" departSpeed="max"/>
  <flow id="f116" type="passenger" from="edge_S_in" to="edge_N_out" begin="28620" end="28800" vehsPerHour="391.3" departLane="best" departSpeed="max"/>
  <flow id="f117" type="passenger" from="edge_W_in" to="edge_N_out" begin="27900" end="28080" vehsPerHour="44.0" departLane="best" departSpeed="max"/>
  <flow id="f118" type="passenger" from="edge_W_in" to="edge_N_out" begin="28080" end="28260" vehsPerHour="44.0" departLane="best" departSpeed="max"/>
  <flow id="f119" type="passenger" from="edge_W_in" to="edge_N_out" begin="28260" end="28440" vehsPerHour="44.0" departLane="best" departSpeed="max"/>
  <flow id="f120" type="passenger" from="edge_W_in" to="edge_N_out" begin="28440" end="28620" vehsPerHour="44.0" departLane="best" departSpeed="max"/>
  <flow id="f121" type="passenger" from="edge_W_in" to="edge_N_out" begin="28620" end="28800" vehsPerHour="44.0" departLane="best" departSpeed="max"/>
  <flow id="f122" type="passenger" from="edge_W_in" to="edge_S_out" begin="27900" end="28080" vehsPerHour="48.0" departLane="best" departSpeed="max"/>
  <flow id="f123" type="passenger" from="edge_W_in" to="edge_S_out" begin="28080" end="28260" vehsPerHour="48.0" departLane="best" departSpeed="max"/>
  <flow id="f124" type="passenger" from="edge_W_in" to="edge_S_out" begin="28260" end="28440" vehsPerHour="48.0" departLane="best" departSpeed="max"/>
  <flow id="f125" type="passenger" from="edge_W_in" to="edge_S_out" begin="28440" end="28620" vehsPerHour="48.0" departLane="best" departSpeed="max"/>
  <flow id="f126" type="passenger" from="edge_W_in" to="edge_S_out" begin="28620" end="28800" vehsPerHour="48.0" departLane="best" departSpeed="max"/>
  <flow id="f127" type="passenger" from="edge_W_in" to="edge_E_out" begin="27900" end="28080" vehsPerHour="661.6" departLane="best" departSpeed="max"/>
  <flow id="f128" type="passenger" from="edge_W_in" to="edge_E_out" begin="28080" end="28260" vehsPerHour="578.3" departLane="best" departSpeed="max"/>
  <flow id="f129" type="passenger" from="edge_W_in" to="edge_E_out" begin="28260" end="28440" vehsPerHour="564.1" departLane="best" departSpeed="max"/>
  <flow id="f130" type="passenger" from="edge_W_in" to="edge_E_out" begin="28440" end="28620" vehsPerHour="291.0" departLane="best" departSpeed="max"/>
  <flow id="f131" type="passenger" from="edge_W_in" to="edge_E_out" begin="28620" end="28800" vehsPerHour="245.0" departLane="best" departSpeed="max"/>
  <flow id="f132" type="passenger" from="edge_E_in" to="edge_S_out" begin="28800" end="28980" vehsPerHour="62.4" departLane="best" departSpeed="max"/>
  <flow id="f133" type="passenger" from="edge_E_in" to="edge_S_out" begin="28980" end="29160" vehsPerHour="76.5" departLane="best" departSpeed="max"/>
  <flow id="f134" type="passenger" from="edge_E_in" to="edge_S_out" begin="29160" end="29340" vehsPerHour="33.4" departLane="best" departSpeed="max"/>
  <flow id="f135" type="passenger" from="edge_E_in" to="edge_S_out" begin="29340" end="29520" vehsPerHour="59.4" departLane="best" departSpeed="max"/>
  <flow id="f136" type="passenger" from="edge_E_in" to="edge_S_out" begin="29520" end="29700" vehsPerHour="28.3" departLane="best" departSpeed="max"/>
  <flow id="f137" type="passenger" from="edge_E_in" to="edge_N_out" begin="28800" end="28980" vehsPerHour="205.6" departLane="best" departSpeed="max"/>
  <flow id="f138" type="passenger" from="edge_E_in" to="edge_N_out" begin="28980" end="29160" vehsPerHour="92.1" departLane="best" departSpeed="max"/>
  <flow id="f139" type="passenger" from="edge_E_in" to="edge_N_out" begin="29160" end="29340" vehsPerHour="135.4" departLane="best" departSpeed="max"/>
  <flow id="f140" type="passenger" from="edge_E_in" to="edge_N_out" begin="29340" end="29520" vehsPerHour="198.3" departLane="best" departSpeed="max"/>
  <flow id="f141" type="passenger" from="edge_E_in" to="edge_N_out" begin="29520" end="29700" vehsPerHour="248.5" departLane="best" departSpeed="max"/>
  <flow id="f142" type="passenger" from="edge_E_in" to="edge_W_out" begin="28800" end="28980" vehsPerHour="1008.0" departLane="best" departSpeed="max"/>
  <flow id="f143" type="passenger" from="edge_E_in" to="edge_W_out" begin="28980" end="29160" vehsPerHour="941.2" departLane="best" departSpeed="max"/>
  <flow id="f144" type="passenger" from="edge_E_in" to="edge_W_out" begin="29160" end="29340" vehsPerHour="401.2" departLane="best" departSpeed="max"/>
  <flow id="f145" type="passenger" from="edge_E_in" to="edge_W_out" begin="29340" end="29520" vehsPerHour="767.0" departLane="best" departSpeed="max"/>
  <flow id="f146" type="passenger" from="edge_E_in" to="edge_W_out" begin="29520" end="29700" vehsPerHour="602.5" departLane="best" departSpeed="max"/>
  <flow id="f147" type="passenger" from="edge_N_in" to="edge_E_out" begin="28800" end="28980" vehsPerHour="104.0" departLane="best" departSpeed="max"/>
  <flow id="f148" type="passenger" from="edge_N_in" to="edge_E_out" begin="28980" end="29160" vehsPerHour="104.0" departLane="best" departSpeed="max"/>
  <flow id="f149" type="passenger" from="edge_N_in" to="edge_E_out" begin="29160" end="29340" vehsPerHour="104.0" departLane="best" departSpeed="max"/>
  <flow id="f150" type="passenger" from="edge_N_in" to="edge_E_out" begin="29340" end="29520" vehsPerHour="104.0" departLane="best" departSpeed="max"/>
  <flow id="f151" type="passenger" from="edge_N_in" to="edge_E_out" begin="29520" end="29700" vehsPerHour="104.0" departLane="best" departSpeed="max"/>
  <flow id="f152" type="passenger" from="edge_N_in" to="edge_W_out" begin="28800" end="28980" vehsPerHour="16.3" departLane="best" departSpeed="max"/>
  <flow id="f153" type="passenger" from="edge_N_in" to="edge_W_out" begin="28980" end="29160" vehsPerHour="27.9" departLane="best" departSpeed="max"/>
  <flow id="f154" type="passenger" from="edge_N_in" to="edge_W_out" begin="29160" end="29340" vehsPerHour="41.0" departLane="best" departSpeed="max"/>
  <flow id="f155" type="passenger" from="edge_N_in" to="edge_W_out" begin="29340" end="29520" vehsPerHour="30.7" departLane="best" departSpeed="max"/>
  <flow id="f156" type="passenger" from="edge_N_in" to="edge_W_out" begin="29520" end="29700" vehsPerHour="44.1" departLane="best" departSpeed="max"/>
  <flow id="f157" type="passenger" from="edge_N_in" to="edge_S_out" begin="28800" end="28980" vehsPerHour="663.0" departLane="best" departSpeed="max"/>
  <flow id="f158" type="passenger" from="edge_N_in" to="edge_S_out" begin="28980" end="29160" vehsPerHour="753.5" departLane="best" departSpeed="max"/>
  <flow id="f159" type="passenger" from="edge_N_in" to="edge_S_out" begin="29160" end="29340" vehsPerHour="310.9" departLane="best" departSpeed="max"/>
  <flow id="f160" type="passenger" from="edge_N_in" to="edge_S_out" begin="29340" end="29520" vehsPerHour="533.5" departLane="best" departSpeed="max"/>
  <flow id="f161" type="passenger" from="edge_N_in" to="edge_S_out" begin="29520" end="29700" vehsPerHour="279.1" departLane="best" departSpeed="max"/>
  <flow id="f162" type="passenger" from="edge_S_in" to="edge_W_out" begin="28800" end="28980" vehsPerHour="84.0" departLane="best" departSpeed="max"/>
  <flow id="f163" type="passenger" from="edge_S_in" to="edge_W_out" begin="28980" end="29160" vehsPerHour="84.0" departLane="best" departSpeed="max"/>
  <flow id="f164" type="passenger" from="edge_S_in" to="edge_W_out" begin="29160" end="29340" vehsPerHour="84.0" departLane="best" departSpeed="max"/>
  <flow id="f165" type="passenger" from="edge_S_in" to="edge_W_out" begin="29340" end="29520" vehsPerHour="84.0" departLane="best" departSpeed="max"/>
  <flow id="f166" type="passenger" from="edge_S_in" to="edge_W_out" begin="29520" end="29700" vehsPerHour="84.0" departLane="best" departSpeed="max"/>
  <flow id="f167" type="passenger" from="edge_S_in" to="edge_E_out" begin="28800" end="28980" vehsPerHour="20.0" departLane="best" departSpeed="max"/>
  <flow id="f168" type="passenger" from="edge_S_in" to="edge_E_out" begin="28980" end="29160" vehsPerHour="20.0" departLane="best" departSpeed="max"/>
  <flow id="f169" type="passenger" from="edge_S_in" to="edge_E_out" begin="29160" end="29340" vehsPerHour="20.0" departLane="best" departSpeed="max"/>
  <flow id="f170" type="passenger" from="edge_S_in" to="edge_E_out" begin="29340" end="29520" vehsPerHour="20.0" departLane="best" departSpeed="max"/>
  <flow id="f171" type="passenger" from="edge_S_in" to="edge_E_out" begin="29520" end="29700" vehsPerHour="20.0" departLane="best" departSpeed="max"/>
  <flow id="f172" type="passenger" from="edge_S_in" to="edge_N_out" begin="28800" end="28980" vehsPerHour="675.9" departLane="best" departSpeed="max"/>
  <flow id="f173" type="passenger" from="edge_S_in" to="edge_N_out" begin="28980" end="29160" vehsPerHour="509.5" departLane="best" departSpeed="max"/>
  <flow id="f174" type="passenger" from="edge_S_in" to="edge_N_out" begin="29160" end="29340" vehsPerHour="371.3" departLane="best" departSpeed="max"/>
  <flow id="f175" type="passenger" from="edge_S_in" to="edge_N_out" begin="29340" end="29520" vehsPerHour="454.7" departLane="best" departSpeed="max"/>
  <flow id="f176" type="passenger" from="edge_S_in" to="edge_N_out" begin="29520" end="29700" vehsPerHour="448.6" departLane="best" departSpeed="max"/>
  <flow id="f177" type="passenger" from="edge_W_in" to="edge_N_out" begin="28800" end="28980" vehsPerHour="28.0" departLane="best" departSpeed="max"/>
  <flow id="f178" type="passenger" from="edge_W_in" to="edge_N_out" begin="28980" end="29160" vehsPerHour="28.0" departLane="best" departSpeed="max"/>
  <flow id="f179" type="passenger" from="edge_W_in" to="edge_N_out" begin="29160" end="29340" vehsPerHour="28.0" departLane="best" departSpeed="max"/>
  <flow id="f180" type="passenger" from="edge_W_in" to="edge_N_out" begin="29340" end="29520" vehsPerHour="28.0" departLane="best" departSpeed="max"/>
  <flow id="f181" type="passenger" from="edge_W_in" to="edge_N_out" begin="29520" end="29700" vehsPerHour="28.0" departLane="best" departSpeed="max"/>
  <flow id="f182" type="passenger" from="edge_W_in" to="edge_S_out" begin="28800" end="28980" vehsPerHour="16.9" departLane="best" departSpeed="max"/>
  <flow id="f183" type="passenger" from="edge_W_in" to="edge_S_out" begin="28980" end="29160" vehsPerHour="24.5" departLane="best" departSpeed="max"/>
  <flow id="f184" type="passenger" from="edge_W_in" to="edge_S_out" begin="29160" end="29340" vehsPerHour="34.7" departLane="best" departSpeed="max"/>
  <flow id="f185" type="passenger" from="edge_W_in" to="edge_S_out" begin="29340" end="29520" vehsPerHour="45.5" departLane="best" departSpeed="max"/>
  <flow id="f186" type="passenger" from="edge_W_in" to="edge_S_out" begin="29520" end="29700" vehsPerHour="18.5" departLane="best" departSpeed="max"/>
  <flow id="f187" type="passenger" from="edge_W_in" to="edge_E_out" begin="28800" end="28980" vehsPerHour="200.3" departLane="best" departSpeed="max"/>
  <flow id="f188" type="passenger" from="edge_W_in" to="edge_E_out" begin="28980" end="29160" vehsPerHour="271.9" departLane="best" departSpeed="max"/>
  <flow id="f189" type="passenger" from="edge_W_in" to="edge_E_out" begin="29160" end="29340" vehsPerHour="225.3" departLane="best" departSpeed="max"/>
  <flow id="f190" type="passenger" from="edge_W_in" to="edge_E_out" begin="29340" end="29520" vehsPerHour="540.9" departLane="best" departSpeed="max"/>
  <flow id="f191" type="passenger" from="edge_W_in" to="edge_E_out" begin="29520" end="29700" vehsPerHour="401.6" departLane="best" departSpeed="max"/>
  <flow id="f192" type="passenger" from="edge_E_in" to="edge_S_out" begin="29700" end="29880" vehsPerHour="28.4" departLane="best" departSpeed="max"/>
  <flow id="f193" type="passenger" from="edge_E_in" to="edge_S_out" begin="29880" end="30060" vehsPerHour="71.8" departLane="best" departSpeed="max"/>
  <flow id="f194" type="passenger" from="edge_E_in" to="edge_S_out" begin="30060" end="30240" vehsPerHour="76.6" departLane="best" departSpeed="max"/>
  <flow id="f195" type="passenger" from="edge_E_in" to="edge_S_out" begin="30240" end="30420" vehsPerHour="46.5" departLane="best" departSpeed="max"/>
  <flow id="f196" type="passenger" from="edge_E_in" to="edge_S_out" begin="30420" end="30600" vehsPerHour="56.7" departLane="best" departSpeed="max"/>