<?xml version="1.0" encoding="UTF-8"?>
<routes xmlns:xsi="http://www.w3.org/2001/XMLSchema-instance" xsi:noNamespaceSchemaLocation="http://sumo.dlr.de/xsd/routes_file.xsd">
  <vType id="passenger" accel="2.6" decel="4.5" sigma="0.5" length="5" maxSpeed="13.9"/>
  <flow id="f0" type="passenger" from="edge_N_in" to="edge_S_out" begin="0" end="27000" vehsPerHour="12.0" departLane="best" departSpeed="max"/>
  <flow id="f1" type="passenger" from="edge_S_in" to="edge_N_out" begin="0" end="27000" vehsPerHour="12.0" departLane="best" departSpeed="max"/>
  <flow id="f2" type="passenger" from="edge_E_in" to="edge_W_out" begin="0" end="27000" vehsPerHour="12.0" departLane="best" departSpeed="max"/>
  <flow id="f3" type="passenger" from="edge_W_in" to="edge_E_out" begin="0" end="27000" vehsPerHour="12.0" departLane="best" departSpeed="max"/>
  <flow id="f4" type="passenger" from="edge_N_in" to="edge_S_out" begin="27000" end="27900" vehsPerHour="984.0" departLane="best" departSpeed="max"/>
  <flow id="f5" type="passenger" from="edge_S_in" to="edge_N_out" begin="27000" end="27900" vehsPerHour="664.0" departLane="best" departSpeed="max"/>
  <flow id="f6" type="passenger" from="edge_E_in" to="edge_W_out" begin="27000" end="27900" vehsPerHour="644.0" departLane="best" departSpeed="max"/>
  <flow id="f7" type="passenger" from="edge_W_in" to="edge_E_out" begin="27000" end="27900" vehsPerHour="592.0" departLane="best" departSpeed="max"/>
  <flow id="f8" type="passenger" from="edge_N_in" to="edge_S_out" begin="27900" end="28800" vehsPerHour="1176.0" departLane="best" departSpeed="max"/>
  <flow id="f9" type="passenger" from="edge_S_in" to="edge_N_out" begin="27900" end="28800" vehsPerHour="1336.0" departLane="best" departSpeed="max"/>
  <flow id="f10" type="passenger" from="edge_E_in" to="edge_W_out" begin="27900" end="28800" vehsPerHour="956.0" departLane="best" departSpeed="max"/>
  <flow id="f11" type="passenger" from="edge_W_in" to="edge_E_out" begin="27900" end="28800" vehsPerHour="720.0" departLane="best" departSpeed="max"/>
  <flow id="f12" type="passenger" from="edge_N_in" to="edge_S_out" begin="28800" end="29700" vehsPerHour="948.0" departLane="best" departSpeed="max"/>
  <flow id="f13" type="passenger" from="edge_S_in" to="edge_N_out" begin="28800" end="29700" vehsPerHour="772.0" departLane="best" departSpeed="max"/>
  <flow id="f14" type="passenger" from="edge_E_in" to="edge_W_out" begin="28800" end="29700" vehsPerHour="872.0" departLane="best" departSpeed="max"/>
  <flow id="f15" type="passenger" from="edge_W_in" to="edge_E_out" begin="28800" end="29700" vehsPerHour="676.0" departLane="best" departSpeed="max"/>
  <flow id="f16" type="passenger" from="edge_N_in" to="edge_S_out" begin="29700" end="30600" vehsPerHour="1296.0" departLane="best" departSpeed="max"/>
  <flow id="f17" type="passenger" from="edge_S_in" to="edge_N_out" begin="29700" end="30600" vehsPerHour="892.0" departLane="best" departSpeed="max"/>
  <flow id="f18" type="passenger" from="edge_E_in" to="edge_W_out" begin="29700" end="30600" vehsPerHour="840.0" departLane="best" departSpeed="max"/>
  <flow id="f19" type="passenger" from="edge_W_in" to="edge_E_out" begin="29700" end="30600" vehsPerHour="916.0" departLane="best" departSpeed="max"/>
  <flow id="f20" type="passenger" from="edge_N_in" to="edge_S_out" begin="30600" end="31500" vehsPerHour="1084.0" departLane="best" departSpeed="max"/>
  <flow id="f21" type="passenger" from="edge_S_in" to="edge_N_out" begin="30600" end="31500" vehsPerHour="1084.0" departLane="best" departSpeed="max"/>
  <flow id="f22" type="passenger" from="edge_E_in" to="edge_W_out" begin="30600" end="31500" vehsPerHour="584.0" departLane="best" departSpeed="max"/>
  <flow id="f23" type="passenger" from="edge_W_in" to="edge_E_out" begin="30600" end="31500" vehsPerHour="628.0" departLane="best" departSpeed="max"/>
  <flow id="f24" type="passenger" from="edge_N_in" to="edge_S_out" begin="31500" end="32400" vehsPerHour="1040.0" departLane="best" departSpeed="max"/>
  <flow id="f25" type="passenger" from="edge_S_in" to="edge_N_out" begin="31500" end="32400" vehsPerHour="1400.0" departLane="best" departSpeed="max"/>
  <flow id="f26" type="passenger" from="edge_E_in" to="edge_W_out" begin="31500" end="32400" vehsPerHour="952.0" departLane="best" departSpeed="max"/>
  <flow id="f27" type="passenger" from="edge_W_in" to="edge_E_out" begin="31500" end="32400" vehsPerHour="552.0" departLane="best" departSpeed="max"/>
  <flow id="f28" type="passenger" from="edge_N_in" to="edge_S_out" begin="32400" end="33300" vehsPerHour="1248.0" departLane="best" departSpeed="max"/>
  <flow id="f29" type="passenger" from="edge_S_in" to="edge_N_out" begin="32400" end="33300" vehsPerHour="1060.0" departLane="best" departSpeed="max"/>
  <flow id="f30" type="passenger" from="edge_E_in" to="edge_W_out" begin="32400" end="33300" vehsPerHour="668.0" departLane="best" departSpeed="max"/>
  <flow id="f31" type="passenger" from="edge_W_in" to="edge_E_out" begin="32400" end="33300" vehsPerHour="696.0" departLane="best" departSpeed="max"/>
  <flow id="f32" type="passenger" from="edge_N_in" to="edge_S_out" begin="33300" end="34200" vehsPerHour="792.0" departLane="best" departSpeed="max"/>
  <flow id="f33" type="passenger" from="edge_S_in" to="edge_N_out" begin="33300" end="34200" vehsPerHour="892.0" departLane="best" departSpeed="max"/>
  <flow id="f34" type="passenger" from="edge_E_in" to="edge_W_out" begin="33300" end="34200" vehsPerHour="564.0" departLane="best" departSpeed="max"/>
  <flow id="f35" type="passenger" from="edge_W_in" to="edge_E_out" begin="33300" end="34200" vehsPerHour="616.0" departLane="best" departSpeed="max"/>
  <flow id="f36" type="passenger" from="edge_N_in" to="edge_S_out" begin="36000" end="36900" vehsPerHour="616.0" departLane="best" departSpeed="max"/>
  <flow id="f37" type="passenger" from="edge_S_in" to="edge_N_out" begin="36000" end="36900" vehsPerHour="400.0" departLane="best" departSpeed="max"/>
  <flow id="f38" type="passenger" from="edge_E_in" to="edge_W_out" begin="36000" end="36900" vehsPerHour="572.0" departLane="best" departSpeed="max"/>
  <flow id="f39" type="passenger" from="edge_W_in" to="edge_E_out" begin="36000" end="36900" vehsPerHour="356.0" departLane="best" departSpeed="max"/>
  <flow id="f40" type="passenger" from="edge_N_in" to="edge_S_out" begin="36900" end="37800" vehsPerHour="608.0" departLane="best" departSpeed="max"/>
  <flow id="f41" type="passenger" from="edge_S_in" to="edge_N_out" begin="36900" end="37800" vehsPerHour="684.0" departLane="best" departSpeed="max"/>
  <flow id="f42" type="passenger" from="edge_E_in" to="edge_W_out" begin="36900" end="37800" vehsPerHour="556.0" departLane="best" departSpeed="max"/>
  <flow id="f43" type="passenger" from="edge_W_in" to="edge_E_out" begin="36900" end="37800" vehsPerHour="524.0" departLane="best" departSpeed="max"/>
  <flow id="f44" type="passenger" from="edge_N_in" to="edge_S_out" begin="37800" end="38700" vehsPerHour="764.0" departLane="best" departSpeed="max"/>
  <flow id="f45" type="passenger" from="edge_S_in" to="edge_N_out" begin="37800" end="38700" vehsPerHour="620.0" departLane="best" departSpeed="max"/>
  <flow id="f46" type="passenger" from="edge_E_in" to="edge_W_out" begin="37800" end="38700" vehsPerHour="740.0" departLane="best" departSpeed="max"/>
  <flow id="f47" type="passenger" from="edge_W_in" to="edge_E_out" begin="37800" end="38700" vehsPerHour="556.0" departLane="best" departSpeed="max"/>
  <flow id="f48" type="passenger" from="edge_N_in" to="edge_S_out" begin="38700" end="39600" vehsPerHour="832.0" departLane="best" departSpeed="max"/>
  <flow id="f49" type="passenger" from="edge_S_in" to="edge_N_out" begin="38700" end="39600" vehsPerHour="628.0" departLane="best" departSpeed="max"/>
  <flow id="f50" type="passenger" from="edge_E_in" to="edge_W_out" begin="38700" end="39600" vehsPerHour="556.0" departLane="best" departSpeed="max"/>
  <flow id="f51" type="passenger" from="edge_W_in" to="edge_E_out" begin="38700" end="39600" vehsPerHour="324.0" departLane="best" departSpeed="max"/>
  <flow id="f52" type="passenger" from="edge_N_in" to="edge_S_out" begin="39600" end="40500" vehsPerHour="576.0" departLane="best" departSpeed="max"/>
  <flow id="f53" type="passenger" from="edge_S_in" to="edge_N_out" begin="39600" end="40500" vehsPerHour="540.0" departLane="best" departSpeed="max"/>
  <flow id="f54" type="passenger" from="edge_E_in" to="edge_W_out" begin="39600" end="40500" vehsPerHour="428.0" departLane="best" departSpeed="max"/>
  <flow id="f55" type="passenger" from="edge_W_in" to="edge_E_out" begin="39600" end="40500" vehsPerHour="432.0" departLane="best" departSpeed="max"/>
  <flow id="f56" type="passenger" from="edge_N_in" to="edge_S_out" begin="40500" end="41400" vehsPerHour="500.0" departLane="best" departSpeed="max"/>
  <flow id="f57" type="passenger" from="edge_S_in" to="edge_N_out" begin="40500" end="41400" vehsPerHour="488.0" departLane="best" departSpeed="max"/>
  <flow id="f58" type="passenger" from="edge_E_in" to="edge_W_out" begin="40500" end="41400" vehsPerHour="480.0" departLane="best" departSpeed="max"/>
  <flow id="f59" type="passenger" from="edge_W_in" to="edge_E_out" begin="40500" end="41400" vehsPerHour="372.0" departLane="best" departSpeed="max"/>
  <flow id="f60" type="passenger" from="edge_N_in" to="edge_S_out" begin="41400" end="42300" vehsPerHour="656.0" departLane="best" departSpeed="max"/>
  <flow id="f61" type="passenger" from="edge_S_in" to="edge_N_out" begin="41400" end="42300" vehsPerHour="520.0" departLane="best" departSpeed="max"/>
  <flow id="f62" type="passenger" from="edge_E_in" to="edge_W_out" begin="41400" end="42300" vehsPerHour="512.0" departLane="best" departSpeed="max"/>
  <flow id="f63" type="passenger" from="edge_W_in" to="edge_E_out" begin="41400" end="42300" vehsPerHour="312.0" departLane="best" departSpeed="max"/>
  <flow id="f64" type="passenger" from="edge_N_in" to="edge_S_out" begin="42300" end="43200" vehsPerHour="572.0" departLane="best" departSpeed="max"/>
  <flow id="f65" type="passenger" from="edge_S_in" to="edge_N_out" begin="42300" end="43200" vehsPerHour="852.0" departLane="best" departSpeed="max"/>
  <flow id="f66" type="passenger" from="edge_E_in" to="edge_W_out" begin="42300" end="43200" vehsPerHour="512.0" departLane="best" departSpeed="max"/>
  <flow id="f67" type="passenger" from="edge_W_in" to="edge_E_out" begin="42300" end="43200" vehsPerHour="368.0" departLane="best" departSpeed="max"/>
  <flow id="f68" type="passenger" from="edge_N_in" to="edge_S_out" begin="46800" end="47700" vehsPerHour="616.0" departLane="best" departSpeed="max"/>
  <flow id="f69" type="passenger" from="edge_S_in" to="edge_N_out" begin="46800" end="47700" vehsPerHour="432.0" departLane="best" departSpeed="max"/>
  <flow id="f70" type="passenger" from="edge_E_in" to="edge_W_out" begin="46800" end="47700" vehsPerHour="496.0" departLane="best" departSpeed="max"/>
  <flow id="f71" type="passenger" from="edge_W_in" to="edge_E_out" begin="46800" end="47700" vehsPerHour="368.0" departLane="best" departSpeed="max"/>
  <flow id="f72" type="passenger" from="edge_N_in" to="edge_S_out" begin="47700" end="48600" vehsPerHour="656.0" departLane="best" departSpeed="max"/>
  <flow id="f73" type="passenger" from="edge_S_in" to="edge_N_out" begin="47700" end="48600" vehsPerHour="616.0" departLane="best" departSpeed="max"/>
  <flow id="f74" type="passenger" from="edge_E_in" to="edge_W_out" begin="47700" end="48600" vehsPerHour="480.0" departLane="best" departSpeed="max"/>
  <flow id="f75" type="passenger" from="edge_W_in" to="edge_E_out" begin="47700" end="48600" vehsPerHour="400.0" departLane="best" departSpeed="max"/>
  <flow id="f76" type="passenger" from="edge_N_in" to="edge_S_out" begin="48600" end="49500" vehsPerHour="624.0" departLane="best" departSpeed="max"/>
  <flow id="f77" type="passenger" from="edge_S_in" to="edge_N_out" begin="48600" end="49500" vehsPerHour="416.0" departLane="best" departSpeed="max"/>
  <flow id="f78" type="passenger" from="edge_E_in" to="edge_W_out" begin="48600" end="49500" vehsPerHour="612.0" departLane="best" departSpeed="max"/>
  <flow id="f79" type="passenger" from="edge_W_in" to="edge_E_out" begin="48600" end="49500" vehsPerHour="452.0" departLane="best" departSpeed="max"/>
  <flow id="f80" type="passenger" from="edge_N_in" to="edge_S_out" begin="49500" end="50400" vehsPerHour="376.0" departLane="best" departSpeed="max"/>
  <flow id="f81" type="passenger" from="edge_S_in" to="edge_N_out" begin="49500" end="50400" vehsPerHour="464.0" departLane="best" departSpeed="max"/>
  <flow id="f82" type="passenger" from="edge_E_in" to="edge_W_out" begin="49500" end="50400" vehsPerHour="384.0" departLane="best" departSpeed="max"/>
  <flow id="f83" type="passenger" from="edge_W_in" to="edge_E_out" begin="49500" end="50400" vehsPerHour="356.0" departLane="best" departSpeed="max"/>
  <flow id="f84" type="passenger" from="edge_N_in" to="edge_S_out" begin="50400" end="51300" vehsPerHour="460.0" departLane="best" departSpeed="max"/>
  <flow id="f85" type="passenger" from="edge_S_in" to="edge_N_out" begin="50400" end="51300" vehsPerHour="376.0" departLane="best" departSpeed="max"/>
  <flow id="f86" type="passenger" from="edge_E_in" to="edge_W_out" begin="50400" end="51300" vehsPerHour="388.0" departLane="best" departSpeed="max"/>
  <flow id="f87" type="passenger" from="edge_W_in" to="edge_E_out" begin="50400" end="51300" vehsPerHour="292.0" departLane="best" departSpeed="max"/>
  <flow id="f88" type="passenger" from="edge_N_in" to="edge_S_out" begin="51300" end="52200" vehsPerHour="580.0" departLane="best" departSpeed="max"/>
  <flow id="f89" type="passenger" from="edge_S_in" to="edge_N_out" begin="51300" end="52200" vehsPerHour="636.0" departLane="best" departSpeed="max"/>
  <flow id="f90" type="passenger" from="edge_E_in" to="edge_W_out" begin="51300" end="52200" vehsPerHour="568.0" departLane="best" departSpeed="max"/>
  <flow id="f91" type="passenger" from="edge_W_in" to="edge_E_out" begin="51300" end="52200" vehsPerHour="380.0" departLane="best" departSpeed="max"/>
  <flow id="f92" type="passenger" from="edge_N_in" to="edge_S_out" begin="52200" end="53100" vehsPerHour="432.0" departLane="best" departSpeed="max"/>
  <flow id="f93" type="passenger" from="edge_S_in" to="edge_N_out" begin="52200" end="53100" vehsPerHour="312.0" departLane="best" departSpeed="max"/>
  <flow id="f94" type="passenger" from="edge_E_in" to="edge_W_out" begin="52200" end="53100" vehsPerHour="416.0" departLane="best" departSpeed="max"/>
  <flow id="f95" type="passenger" from="edge_W_in" to="edge_E_out" begin="52200" end="53100" vehsPerHour="320.0" departLane="best" departSpeed="max"/>
  <flow id="f96" type="passenger" from="edge_N_in" to="edge_S_out" begin="53100" end="54000" vehsPerHour="820.0" departLane="best" departSpeed="max"/>
  <flow id="f97" type="passenger" from="edge_S_in" to="edge_N_out" begin="53100" end="54000" vehsPerHour="520.0" departLane="best" departSpeed="max"/>
  <flow id="f98" type="passenger" from="edge_E_in" to="edge_W_out" begin="53100" end="54000" vehsPerHour="476.0" departLane="best" departSpeed="max"/>
  <flow id="f99" type="passenger" from="edge_W_in" to="edge_E_out" begin="53100" end="54000" vehsPerHour="324.0" departLane="best" departSpeed="max"/>
  <flow id="f100" type="passenger" from="edge_N_in" to="edge_S_out" begin="57600" end="58500" vehsPerHour="580.0" departLane="best" departSpeed="max"/>
  <flow id="f101" type="passenger" from="edge_S_in" to="edge_N_out" begin="57600" end="58500" vehsPerHour="384.0" departLane="best" departSpeed="max"/>
  <flow id="f102" type="passenger" from="edge_E_in" to="edge_W_out" begin="57600" end="58500" vehsPerHour="404.0" departLane="best" departSpeed="max"/>
  <flow id="f103" type="passenger" from="edge_W_in" to="edge_E_out" begin="57600" end="58500" vehsPerHour="364.0" departLane="best" departSpeed="max"/>
  <flow id="f104" type="passenger" from="edge_N_in" to="edge_S_out" begin="58500" end="59400" vehsPerHour="472.0" departLane="best" departSpeed="max"/>
  <flow id="f105" type="passenger" from="edge_S_in" to="edge_N_out" begin="58500" end="59400" vehsPerHour="532.0" departLane="best" departSpeed="max"/>
  <flow id="f106" type="passenger" from="edge_E_in" to="edge_W_out" begin="58500" end="59400" vehsPerHour="288.0" departLane="best" departSpeed="max"/>
  <flow id="f107" type="passenger" from="edge_W_in" to="edge_E_out" begin="58500" end="59400" vehsPerHour="280.0" departLane="best" departSpeed="max"/>
  <flow id="f108" type="passenger" from="edge_N_in" to="edge_S_out" begin="59400" end="60300" vehsPerHour="476.0" departLane="best" departSpeed="max"/>
  <flow id="f109" type="passenger" from="edge_S_in" to="edge_N_out" begin="59400" end="60300" vehsPerHour="548.0" departLane="best" departSpeed="max"/>
  <flow id="f110" type="passenger" from="edge_E_in" to="edge_W_out" begin="59400" end="60300" vehsPerHour="436.0" departLane="best" departSpeed="max"/>
  <flow id="f111" type="passenger" from="edge_W_in" to="edge_E_out" begin="59400" end="60300" vehsPerHour="380.0" departLane="best" departSpeed="max"/>
  <flow id="f112" type="passenger" from="edge_N_in" to="edge_S_out" begin="60300" end="61200" vehsPerHour="600.0" departLane="best" departSpeed="max"/>
  <flow id="f113" type="passenger" from="edge_S_in" to="edge_N_out" begin="60300" end="61200" vehsPerHour="616.0" departLane="best" departSpeed="max"/>
  <flow id="f114" type="passenger" from="edge_E_in" to="edge_W_out" begin="60300" end="61200" vehsPerHour="440.0" departLane="best" departSpeed="max"/>
  <flow id="f115" type="passenger" from="edge_W_in" to="edge_E_out" begin="60300" end="61200" vehsPerHour="312.0" departLane="best" departSpeed="max"/>
  <flow id="f116" type="passenger" from="edge_N_in" to="edge_S_out" begin="61200" end="62100" vehsPerHour="480.0" departLane="best" departSpeed="max"/>
  <flow id="f117" type="passenger" from="edge_S_in" to="edge_N_out" begin="61200" end="62100" vehsPerHour="476.0" departLane="best" departSpeed="max"/>
  <flow id="f118" type="passenger" from="edge_E_in" to="edge_W_out" begin="61200" end="62100" vehsPerHour="396.0" departLane="best" departSpeed="max"/>
  <flow id="f119" type="passenger" from="edge_W_in" to="edge_E_out" begin="61200" end="62100" vehsPerHour="272.0" departLane="best" departSpeed="max"/>
  <flow id="f120" type="passenger" from="edge_N_in" to="edge_S_out" begin="62100" end="63000" vehsPerHour="736.0" departLane="best" departSpeed="max"/>
  <flow id="f121" type="passenger" from="edge_S_in" to="edge_N_out" begin="62100" end="63000" vehsPerHour="648.0" departLane="best" departSpeed="max"/>
  <flow id="f122" type="passenger" from="edge_E_in" to="edge_W_out" begin="62100" end="63000" vehsPerHour="536.0" departLane="best" departSpeed="max"/>
  <flow id="f123" type="passenger" from="edge_W_in" to="edge_E_out" begin="62100" end="63000" vehsPerHour="404.0" departLane="best" departSpeed="max"/>
  <flow id="f124" type="passenger" from="edge_N_in" to="edge_S_out" begin="63000" end="63900" vehsPerHour="532.0" departLane="best" departSpeed="max"/>
  <flow id="f125" type="passenger" from="edge_S_in" to="edge_N_out" begin="63000" end="63900" vehsPerHour="532.0" departLane="best" departSpeed="max"/>
  <flow id="f126" type="passenger" from="edge_E_in" to="edge_W_out" begin="63000" end="63900" vehsPerHour="472.0" departLane="best" departSpeed="max"/>
  <flow id="f127" type="passenger" from="edge_W_in" to="edge_E_out" begin="63000" end="63900" vehsPerHour="648.0" departLane="best" departSpeed="max"/>
  <flow id="f128" type="passenger" from="edge_N_in" to="edge_S_out" begin="63900" end="64800" vehsPerHour="692.0" departLane="best" departSpeed="max"/>
  <flow id="f129" type="passenger" from="edge_S_in" to="edge_N_out" begin="63900" end="64800" vehsPerHour="576.0" departLane="best" departSpeed="max"/>
  <flow id="f130" type="passenger" from="edge_E_in" to="edge_W_out" begin="63900" end="64800" vehsPerHour="504.0" departLane="best" departSpeed="max"/>
  <flow id="f131" type="passenger" from="edge_W_in" to="edge_E_out" begin="63900" end="64800" vehsPerHour="348.0" departLane="best" departSpeed="max"/>
  <flow id="f132" type="passenger" from="edge_N_in" to="edge_S_out" begin="64800" end="65700" vehsPerHour="692.0" departLane="best" departSpeed="max"/>
  <flow id="f133" type="passenger" from="edge_S_in" to="edge_N_out" begin="64800" end="65700" vehsPerHour="576.0" departLane="best" departSpeed="max"/>
  <flow id="f134" type="passenger" from="edge_E_in" to="edge_W_out" begin="64800" end="65700" vehsPerHour="504.0" departLane="best" departSpeed="max"/>
  <flow id="f135" type="passenger" from="edge_W_in" to="edge_E_out" begin="64800" end="65700" vehsPerHour="348.0" departLane="best" departSpeed="max"/>
  <flow id="f136" type="passenger" from="edge_N_in" to="edge_S_out" begin="65700" end="66600" vehsPerHour="662.4" departLane="best" departSpeed="max"/>
  <flow id="f137" type="passenger" from="edge_S_in" to="edge_N_out" begin="65700" end="66600" vehsPerHour="551.5" departLane="best" departSpeed="max"/>
  <flow id="f138" type="passenger" from="edge_E_in" to="edge_W_out" begin="65700" end="66600" vehsPerHour="482.6" departLane="best" departSpeed="max"/>
  <flow id="f139" type="passenger" from="edge_W_in" to="edge_E_out" begin="65700" end="66600" vehsPerHour="333.4" departLane="best" departSpeed="max"/>
  <flow id="f140" type="passenger" from="edge_N_in" to="edge_S_out" begin="66600" end="67500" vehsPerHour="632.9" departLane="best" departSpeed="max"/>
  <flow id="f141" type="passenger" from="edge_S_in" to="edge_N_out" begin="66600" end="67500" vehsPerHour="527.0" departLane="best" departSpeed="max"/>
  <flow id="f142" type="passenger" from="edge_E_in" to="edge_W_out" begin="66600" end="67500" vehsPerHour="461.2" departLane="best" departSpeed="max"/>
  <flow id="f143" type="passenger" from="edge_W_in" to="edge_E_out" begin="66600" end="67500" vehsPerHour="318.8" departLane="best" departSpeed="max"/>
  <flow id="f144" type="passenger" from="edge_N_in" to="edge_S_out" begin="67500" end="68400" vehsPerHour="603.3" departLane="best" departSpeed="max"/>
  <flow id="f145" type="passenger" from="edge_S_in" to="edge_N_out" begin="67500" end="68400" vehsPerHour="502.4" departLane="best" departSpeed="max"/>
  <flow id="f146" type="passenger" from="edge_E_in" to="edge_W_out" begin="67500" end="68400" vehsPerHour="439.8" departLane="best" departSpeed="max"/>
  <flow id="f147" type="passenger" from="edge_W_in" to="edge_E_out" begin="67500" end="68400" vehsPerHour="304.2" departLane="best" departSpeed="max"/>
  <flow id="f148" type="passenger" from="edge_N_in" to="edge_S_out" begin="68400" end="69300" vehsPerHour="573.7" departLane="best" departSpeed="max"/>
  <flow id="f149" type="passenger" from="edge_S_in" to="edge_N_out" begin="68400" end="69300" vehsPerHour="477.9" departLane="best" departSpeed="max"/>
  <flow id="f150" type="passenger" from="edge_E_in" to="edge_W_out" begin="68400" end="69300" vehsPerHour="418.4" departLane="best" departSpeed="max"/>
  <flow id="f151" type="passenger" from="edge_W_in" to="edge_E_out" begin="68400" end="69300" vehsPerHour="289.6" departLane="best" departSpeed="max"/>
  <flow id="f152" type="passenger" from="edge_N_in" to="edge_S_out" begin="69300" end="70200" vehsPerHour="544.2" departLane="best" departSpeed="max"/>
  <flow id="f153" type="passenger" from="edge_S_in" to="edge_N_out" begin="69300" end="70200" vehsPerHour="453.4" departLane="best" departSpeed="max"/>
  <flow id="f154" type="passenger" from="edge_E_in" to="edge_W_out" begin="69300" end="70200" vehsPerHour="397.0" departLane="best" departSpeed="max"/>
  <flow id="f155" type="passenger" from="edge_W_in" to="edge_E_out" begin="69300" end="70200" vehsPerHour="275.0" departLane="best" departSpeed="max"/>
  <flow id="f156" type="passenger" from="edge_N_in" to="edge_S_out" begin="70200" end="71100" vehsPerHour="514.6" departLane="best" departSpeed="max"/>
  <flow id="f157" type="passenger" from="edge_S_in" to="edge_N_out" begin="70200" end="71100" vehsPerHour="428.9" departLane="best" departSpeed="max"/>
  <flow id="f158" type="passenger" from="edge_E_in" to="edge_W_out" begin="70200" end="71100" vehsPerHour="375.7" departLane="best" departSpeed="max"/>
  <flow id="f159" type="passenger" from="edge_W_in" to="edge_E_out" begin="70200" end="71100" vehsPerHour="260.3" departLane="best" departSpeed="max"/>
  <flow id="f160" type="passenger" from="edge_N_in" to="edge_S_out" begin="71100" end="72000" vehsPerHour="485.0" departLane="best" departSpeed="max"/>
  <flow id="f161" type="passenger" from="edge_S_in" to="edge_N_out" begin="71100" end="72000" vehsPerHour="404.3" departLane="best" departSpeed="max"/>
  <flow id="f162" type="passenger" from="edge_E_in" to="edge_W_out" begin="71100" end="72000" vehsPerHour="354.3" departLane="best" departSpeed="max"/>
  <flow id="f163" type="passenger" from="edge_W_in" to="edge_E_out" begin="71100" end="72000" vehsPerHour="245.7" departLane="best" departSpeed="max"/>
  <flow id="f164" type="passenger" from="edge_N_in" to="edge_S_out" begin="72000" end="72900" vehsPerHour="455.5" departLane="best" departSpeed="max"/>
  <flow id="f165" type="passenger" from="edge_S_in" to="edge_N_out" begin="72000" end="72900" vehsPerHour="379.8" departLane="best" departSpeed="max"/>
  <flow id="f166" type="passenger" from="edge_E_in" to="edge_W_out" begin="72000" end="72900" vehsPerHour="332.9" departLane="best" departSpeed="max"/>
  <flow id="f167" type="passenger" from="edge_W_in" to="edge_E_out" begin="72000" end="72900" vehsPerHour="231.1" departLane="best" departSpeed="max"/>
  <flow id="f168" type="passenger" from="edge_N_in" to="edge_S_out" begin="72900" end="73800" vehsPerHour="425.9" departLane="best" departSpeed="max"/>
  <flow id="f169" type="passenger" from="edge_S_in" to="edge_N_out" begin="72900" end="73800" vehsPerHour="355.3" departLane="best" departSpeed="max"/>
  <flow id="f170" type="passenger" from="edge_E_in" to="edge_W_out" begin="72900" end="73800" vehsPerHour="311.5" departLane="best" departSpeed="max"/>
  <flow id="f171" type="passenger" from="edge_W_in" to="edge_E_out" begin="72900" end="73800" vehsPerHour="216.5" departLane="best" departSpeed="max"/>
  <flow id="f172" type="passenger" from="edge_N_in" to="edge_S_out" begin="73800" end="74700" vehsPerHour="396.3" departLane="best" departSpeed="max"/>
  <flow id="f173" type="passenger" from="edge_S_in" to="edge_N_out" begin="73800" end="74700" vehsPerHour="330.8" departLane="best" departSpeed="max"/>
  <flow id="f174" type="passenger" from="edge_E_in" to="edge_W_out" begin="73800" end="74700" vehsPerHour="290.1" departLane="best" departSpeed="max"/>
  <flow id="f175" type="passenger" from="edge_W_in" to="edge_E_out" begin="73800" end="74700" vehsPerHour="201.9" departLane="best" departSpeed="max"/>
  <flow id="f176" type="passenger" from="edge_N_in" to="edge_S_out" begin="74700" end="75600" vehsPerHour="366.8" departLane="best" departSpeed="max"/>
  <flow id="f177" type="passenger" from="edge_S_in" to="edge_N_out" begin="74700" end="75600" vehsPerHour="306.3" departLane="best" departSpeed="max"/>
  <flow id="f178" type="passenger" from="edge_E_in" to="edge_W_out" begin="74700" end="75600" vehsPerHour="268.7" departLane="best" departSpeed="max"/>
  <flow id="f179" type="passenger" from="edge_W_in" to="edge_E_out" begin="74700" end="75600" vehsPerHour="187.3" departLane="best" departSpeed="max"/>
  <flow id="f180" type="passenger" from="edge_N_in" to="edge_S_out" begin="75600" end="76500" vehsPerHour="337.2" departLane="best" departSpeed="max"/>
  <flow id="f181" type="passenger" from="edge_S_in" to="edge_N_out" begin="75600" end="76500" vehsPerHour="281.7" departLane="best" departSpeed="max"/>
  <flow id="f182" type="passenger" from="edge_E_in" to="edge_W_out" begin="75600" end="76500" vehsPerHour="247.3" departLane="best" departSpeed="max"/>
  <flow id="f183" type="passenger" from="edge_W_in" to="edge_E_out" begin="75600" end="76500" vehsPerHour="172.7" departLane="best" departSpeed="max"/>
  <flow id="f184" type="passenger" from="edge_N_in" to="edge_S_out" begin="76500" end="77400" vehsPerHour="307.7" departLane="best" departSpeed="max"/>
  <flow id="f185" type="passenger" from="edge_S_in" to="edge_N_out" begin="76500" end="77400" vehsPerHour="257.2" departLane="best" departSpeed="max"/>
  <flow id="f186" type="passenger" from="edge_E_in" to="edge_W_out" begin="76500" end="77400" vehsPerHour="225.9" departLane="best" departSpeed="max"/>
  <flow id="f187" type="passenger" from="edge_W_in" to="edge_E_out" begin="76500" end="77400" vehsPerHour="158.1" departLane="best" departSpeed="max"/>
  <flow id="f188" type="passenger" from="edge_N_in" to="edge_S_out" begin="77400" end="78300" vehsPerHour="278.1" departLane="best" departSpeed="max"/>
  <flow id="f189" type="passenger" from="edge_S_in" to="edge_N_out" begin="77400" end="78300" vehsPerHour="232.7" departLane="best" departSpeed="max"/>
  <flow id="f190" type="passenger" from="edge_E_in" to="edge_W_out" begin="77400" end="78300" vehsPerHour="204.5" departLane="best" departSpeed="max"/>
  <flow id="f191" type="passenger" from="edge_W_in" to="edge_E_out" begin="77400" end="78300" vehsPerHour="143.5" departLane="best" departSpeed="max"/>
  <flow id="f192" type="passenger" from="edge_N_in" to="edge_S_out" begin="78300" end="79200" vehsPerHour="248.5" departLane="best" departSpeed="max"/>
  <flow id="f193" type="passenger" from="edge_S_in" to="edge_N_out" begin="78300" end="79200" vehsPerHour="208.2" departLane="best" departSpeed="max"/>
  <flow id="f194" type="passenger" from="edge_E_in" to="edge_W_out" begin="78300" end="79200" vehsPerHour="183.1" departLane="best" departSpeed="max"/>
  <flow id="f195" type="passenger" from="edge_W_in" to="edge_E_out" begin="78300" end="79200" vehsPerHour="128.9" departLane="best" departSpeed="max"/>