<?xml version="1.0" encoding="UTF-8"?>
<routes xmlns:xsi="http://www.w3.org/2001/XMLSchema-instance" xsi:noNamespaceSchemaLocation="http://sumo.dlr.de/xsd/routes_file.xsd">
  <vType id="passenger" accel="2.6" decel="4.5" sigma="0.5" length="5" maxSpeed="13.9"/>
  <flow id="f0" type="passenger" from="edge_N_in" to="edge_S_out" begin="0" end="27000" vehsPerHour="4.0" departLane="best" departSpeed="max"/>
  <flow id="f1" type="passenger" from="edge_N_in" to="edge_W_out" begin="0" end="27000" vehsPerHour="4.0" departLane="best" departSpeed="max"/>
  <flow id="f2" type="passenger" from="edge_N_in" to="edge_E_out" begin="0" end="27000" vehsPerHour="4.0" departLane="best" departSpeed="max"/>
  <flow id="f3" type="passenger" from="edge_S_in" to="edge_N_out" begin="0" end="27000" vehsPerHour="4.0" departLane="best" departSpeed="max"/>
  <flow id="f4" type="passenger" from="edge_S_in" to="edge_E_out" begin="0" end="27000" vehsPerHour="4.0" departLane="best" departSpeed="max"/>
  <flow id="f5" type="passenger" from="edge_S_in" to="edge_W_out" begin="0" end="27000" vehsPerHour="4.0" departLane="best" departSpeed="max"/>
  <flow id="f6" type="passenger" from="edge_E_in" to="edge_W_out" begin="0" end="27000" vehsPerHour="4.0" departLane="best" departSpeed="max"/>
  <flow id="f7" type="passenger" from="edge_E_in" to="edge_N_out" begin="0" end="27000" vehsPerHour="4.0" departLane="best" departSpeed="max"/>
  <flow id="f8" type="passenger" from="edge_E_in" to="edge_S_out" begin="0" end="27000" vehsPerHour="4.0" departLane="best" departSpeed="max"/>
  <flow id="f9" type="passenger" from="edge_W_in" to="edge_E_out" begin="0" end="27000" vehsPerHour="4.0" departLane="best" departSpeed="max"/>
  <flow id="f10" type="passenger" from="edge_W_in" to="edge_S_out" begin="0" end="27000" vehsPerHour="4.0" departLane="best" departSpeed="max"/>
  <flow id="f11" type="passenger" from="edge_W_in" to="edge_N_out" begin="0" end="27000" vehsPerHour="4.0" departLane="best" departSpeed="max"/>
  <flow id="f12" type="passenger" from="edge_N_in" to="edge_S_out" begin="27000" end="27900" vehsPerHour="536.0" departLane="best" departSpeed="max"/>
  <flow id="f13" type="passenger" from="edge_N_in" to="edge_W_out" begin="27000" end="27900" vehsPerHour="44.0" departLane="best" departSpeed="max"/>
  <flow id="f14" type="passenger" from="edge_N_in" to="edge_E_out" begin="27000" end="27900" vehsPerHour="92.0" departLane="best" departSpeed="max"/>
  <flow id="f15" type="passenger" from="edge_S_in" to="edge_N_out" begin="27000" end="27900" vehsPerHour="404.0" departLane="best" departSpeed="max"/>
  <flow id="f16" type="passenger" from="edge_S_in" to="edge_E_out" begin="27000" end="27900" vehsPerHour="28.0" departLane="best" departSpeed="max"/>
  <flow id="f17" type="passenger" from="edge_S_in" to="edge_W_out" begin="27000" end="27900" vehsPerHour="100.0" departLane="best" departSpeed="max"/>
  <flow id="f18" type="passenger" from="edge_E_in" to="edge_W_out" begin="27000" end="27900" vehsPerHour="280.0" departLane="best" departSpeed="max"/>
  <flow id="f19" type="passenger" from="edge_E_in" to="edge_N_out" begin="27000" end="27900" vehsPerHour="92.0" departLane="best" departSpeed="max"/>
  <flow id="f20" type="passenger" from="edge_E_in" to="edge_S_out" begin="27000" end="27900" vehsPerHour="40.0" departLane="best" departSpeed="max"/>
  <flow id="f21" type="passenger" from="edge_W_in" to="edge_E_out" begin="27000" end="27900" vehsPerHour="328.0" departLane="best" departSpeed="max"/>
  <flow id="f22" type="passenger" from="edge_W_in" to="edge_S_out" begin="27000" end="27900" vehsPerHour="56.0" departLane="best" departSpeed="max"/>
  <flow id="f23" type="passenger" from="edge_W_in" to="edge_N_out" begin="27000" end="27900" vehsPerHour="44.0" departLane="best" departSpeed="max"/>
  <flow id="f24" type="passenger" from="edge_N_in" to="edge_S_out" begin="27900" end="28800" vehsPerHour="668.0" departLane="best" departSpeed="max"/>
  <flow id="f25" type="passenger" from="edge_N_in" to="edge_W_out" begin="27900" end="28800" vehsPerHour="44.0" departLane="best" departSpeed="max"/>
  <flow id="f26" type="passenger" from="edge_N_in" to="edge_E_out" begin="27900" end="28800" vehsPerHour="108.0" departLane="best" departSpeed="max"/>
  <flow id="f27" type="passenger" from="edge_S_in" to="edge_N_out" begin="27900" end="28800" vehsPerHour="872.0" departLane="best" departSpeed="max"/>
  <flow id="f28" type="passenger" from="edge_S_in" to="edge_E_out" begin="27900" end="28800" vehsPerHour="20.0" departLane="best" departSpeed="max"/>
  <flow id="f29" type="passenger" from="edge_S_in" to="edge_W_out" begin="27900" end="28800" vehsPerHour="148.0" departLane="best" departSpeed="max"/>
  <flow id="f30" type="passenger" from="edge_E_in" to="edge_W_out" begin="27900" end="28800" vehsPerHour="452.0" departLane="best" departSpeed="max"/>
  <flow id="f31" type="passenger" from="edge_E_in" to="edge_N_out" begin="27900" end="28800" vehsPerHour="108.0" departLane="best" departSpeed="max"/>
  <flow id="f32" type="passenger" from="edge_E_in" to="edge_S_out" begin="27900" end="28800" vehsPerHour="44.0" departLane="best" departSpeed="max"/>
  <flow id="f33" type="passenger" from="edge_W_in" to="edge_E_out" begin="27900" end="28800" vehsPerHour="396.0" departLane="best" departSpeed="max"/>
  <flow id="f34" type="passenger" from="edge_W_in" to="edge_S_out" begin="27900" end="28800" vehsPerHour="68.0" departLane="best" departSpeed="max"/>
  <flow id="f35" type="passenger" from="edge_W_in" to="edge_N_out" begin="27900" end="28800" vehsPerHour="36.0" departLane="best" departSpeed="max"/>
  <flow id="f36" type="passenger" from="edge_N_in" to="edge_S_out" begin="28800" end="29700" vehsPerHour="504.0" departLane="best" departSpeed="max"/>
  <flow id="f37" type="passenger" from="edge_N_in" to="edge_W_out" begin="28800" end="29700" vehsPerHour="40.0" departLane="best" departSpeed="max"/>
  <flow id="f38" type="passenger" from="edge_N_in" to="edge_E_out" begin="28800" end="29700" vehsPerHour="68.0" departLane="best" departSpeed="max"/>
  <flow id="f39" type="passenger" from="edge_S_in" to="edge_N_out" begin="28800" end="29700" vehsPerHour="756.0" departLane="best" departSpeed="max"/>
  <flow id="f40" type="passenger" from="edge_S_in" to="edge_E_out" begin="28800" end="29700" vehsPerHour="56.0" departLane="best" departSpeed="max"/>
  <flow id="f41" type="passenger" from="edge_S_in" to="edge_W_out" begin="28800" end="29700" vehsPerHour="128.0" departLane="best" departSpeed="max"/>
  <flow id="f42" type="passenger" from="edge_E_in" to="edge_W_out" begin="28800" end="29700" vehsPerHour="528.0" departLane="best" departSpeed="max"/>
  <flow id="f43" type="passenger" from="edge_E_in" to="edge_N_out" begin="28800" end="29700" vehsPerHour="112.0" departLane="best" departSpeed="max"/>
  <flow id="f44" type="passenger" from="edge_E_in" to="edge_S_out" begin="28800" end="29700" vehsPerHour="28.0" departLane="best" departSpeed="max"/>
  <flow id="f45" type="passenger" from="edge_W_in" to="edge_E_out" begin="28800" end="29700" vehsPerHour="524.0" departLane="best" departSpeed="max"/>
  <flow id="f46" type="passenger" from="edge_W_in" to="edge_S_out" begin="28800" end="29700" vehsPerHour="80.0" departLane="best" departSpeed="max"/>
  <flow id="f47" type="passenger" from="edge_W_in" to="edge_N_out" begin="28800" end="29700" vehsPerHour="56.0" departLane="best" departSpeed="max"/>
  <flow id="f48" type="passenger" from="edge_N_in" to="edge_S_out" begin="29700" end="30600" vehsPerHour="692.0" departLane="best" departSpeed="max"/>
  <flow id="f49" type="passenger" from="edge_N_in" to="edge_W_out" begin="29700" end="30600" vehsPerHour="72.0" departLane="best" departSpeed="max"/>
  <flow id="f50" type="passenger" from="edge_N_in" to="edge_E_out" begin="29700" end="30600" vehsPerHour="104.0" departLane="best" departSpeed="max"/>
  <flow id="f51" type="passenger" from="edge_S_in" to="edge_N_out" begin="29700" end="30600" vehsPerHour="984.0" departLane="best" departSpeed="max"/>
  <flow id="f52" type="passenger" from="edge_S_in" to="edge_E_out" begin="29700" end="30600" vehsPerHour="40.0" departLane="best" departSpeed="max"/>
  <flow id="f53" type="passenger" from="edge_S_in" to="edge_W_out" begin="29700" end="30600" vehsPerHour="108.0" departLane="best" departSpeed="max"/>
  <flow id="f54" type="passenger" from="edge_E_in" to="edge_W_out" begin="29700" end="30600" vehsPerHour="748.0" departLane="best" departSpeed="max"/>
  <flow id="f55" type="passenger" from="edge_E_in" to="edge_N_out" begin="29700" end="30600" vehsPerHour="152.0" departLane="best" departSpeed="max"/>
  <flow id="f56" type="passenger" from="edge_E_in" to="edge_S_out" begin="29700" end="30600" vehsPerHour="64.0" departLane="best" departSpeed="max"/>
  <flow id="f57" type="passenger" from="edge_W_in" to="edge_E_out" begin="29700" end="30600" vehsPerHour="460.0" departLane="best" departSpeed="max"/>
  <flow id="f58" type="passenger" from="edge_W_in" to="edge_S_out" begin="29700" end="30600" vehsPerHour="72.0" departLane="best" departSpeed="max"/>
  <flow id="f59" type="passenger" from="edge_W_in" to="edge_N_out" begin="29700" end="30600" vehsPerHour="52.0" departLane="best" departSpeed="max"/>
  <flow id="f60" type="passenger" from="edge_N_in" to="edge_S_out" begin="30600" end="31500" vehsPerHour="556.0" departLane="best" departSpeed="max"/>
  <flow id="f61" type="passenger" from="edge_N_in" to="edge_W_out" begin="30600" end="31500" vehsPerHour="40.0" departLane="best" departSpeed="max"/>
  <flow id="f62" type="passenger" from="edge_N_in" to="edge_E_out" begin="30600" end="31500" vehsPerHour="64.0" departLane="best" departSpeed="max"/>
  <flow id="f63" type="passenger" from="edge_S_in" to="edge_N_out" begin="30600" end="31500" vehsPerHour="764.0" departLane="best" departSpeed="max"/>
  <flow id="f64" type="passenger" from="edge_S_in" to="edge_E_out" begin="30600" end="31500" vehsPerHour="32.0" departLane="best" departSpeed="max"/>
  <flow id="f65" type="passenger" from="edge_S_in" to="edge_W_out" begin="30600" end="31500" vehsPerHour="124.0" departLane="best" departSpeed="max"/>
  <flow id="f66" type="passenger" from="edge_E_in" to="edge_W_out" begin="30600" end="31500" vehsPerHour="428.0" departLane="best" departSpeed="max"/>
  <flow id="f67" type="passenger" from="edge_E_in" to="edge_N_out" begin="30600" end="31500" vehsPerHour="116.0" departLane="best" departSpeed="max"/>
  <flow id="f68" type="passenger" from="edge_E_in" to="edge_S_out" begin="30600" end="31500" vehsPerHour="44.0" departLane="best" departSpeed="max"/>
  <flow id="f69" type="passenger" from="edge_W_in" to="edge_E_out" begin="30600" end="31500" vehsPerHour="424.0" departLane="best" departSpeed="max"/>
  <flow id="f70" type="passenger" from="edge_W_in" to="edge_S_out" begin="30600" end="31500" vehsPerHour="48.0" departLane="best" departSpeed="max"/>
  <flow id="f71" type="passenger" from="edge_W_in" to="edge_N_out" begin="30600" end="31500" vehsPerHour="68.0" departLane="best" departSpeed="max"/>
  <flow id="f72" type="passenger" from="edge_N_in" to="edge_S_out" begin="31500" end="32400" vehsPerHour="532.0" departLane="best" departSpeed="max"/>
  <flow id="f73" type="passenger" from="edge_N_in" to="edge_W_out" begin="31500" end="32400" vehsPerHour="44.0" departLane="best" departSpeed="max"/>
  <flow id="f74" type="passenger" from="edge_N_in" to="edge_E_out" begin="31500" end="32400" vehsPerHour="84.0" departLane="best" departSpeed="max"/>
  <flow id="f75" type="passenger" from="edge_S_in" to="edge_N_out" begin="31500" end="32400" vehsPerHour="668.0" departLane="best" departSpeed="max"/>
  <flow id="f76" type="passenger" from="edge_S_in" to="edge_E_out" begin="31500" end="32400" vehsPerHour="36.0" departLane="best" departSpeed="max"/>
  <flow id="f77" type="passenger" from="edge_S_in" to="edge_W_out" begin="31500" end="32400" vehsPerHour="132.0" departLane="best" departSpeed="max"/>
  <flow id="f78" type="passenger" from="edge_E_in" to="edge_W_out" begin="31500" end="32400" vehsPerHour="588.0" departLane="best" departSpeed="max"/>
  <flow id="f79" type="passenger" from="edge_E_in" to="edge_N_out" begin="31500" end="32400" vehsPerHour="88.0" departLane="best" departSpeed="max"/>
  <flow id="f80" type="passenger" from="edge_E_in" to="edge_S_out" begin="31500" end="32400" vehsPerHour="60.0" departLane="best" departSpeed="max"/>
  <flow id="f81" type="passenger" from="edge_W_in" to="edge_E_out" begin="31500" end="32400" vehsPerHour="392.0" departLane="best" departSpeed="max"/>
  <flow id="f82" type="passenger" from="edge_W_in" to="edge_S_out" begin="31500" end="32400" vehsPerHour="60.0" departLane="best" departSpeed="max"/>
  <flow id="f83" type="passenger" from="edge_W_in" to="edge_N_out" begin="31500" end="32400" vehsPerHour="48.0" departLane="best" departSpeed="max"/>
  <flow id="f84" type="passenger" from="edge_N_in" to="edge_S_out" begin="32400" end="33300" vehsPerHour="804.0" departLane="best" departSpeed="max"/>
  <flow id="f85" type="passenger" from="edge_N_in" to="edge_W_out" begin="32400" end="33300" vehsPerHour="40.0" departLane="best" departSpeed="max"/>
  <flow id="f86" type="passenger" from="edge_N_in" to="edge_E_out" begin="32400" end="33300" vehsPerHour="132.0" departLane="best" departSpeed="max"/>
  <flow id="f87" type="passenger" from="edge_S_in" to="edge_N_out" begin="32400" end="33300" vehsPerHour="1032.0" departLane="best" departSpeed="max"/>
  <flow id="f88" type="passenger" from="edge_S_in" to="edge_E_out" begin="32400" end="33300" vehsPerHour="40.0" departLane="best" departSpeed="max"/>
  <flow id="f89" type="passenger" from="edge_S_in" to="edge_W_out" begin="32400" end="33300" vehsPerHour="168.0" departLane="best" departSpeed="max"/>
  <flow id="f90" type="passenger" from="edge_E_in" to="edge_W_out" begin="32400" end="33300" vehsPerHour="396.0" departLane="best" departSpeed="max"/>
  <flow id="f91" type="passenger" from="edge_E_in" to="edge_N_out" begin="32400" end="33300" vehsPerHour="96.0" departLane="best" departSpeed="max"/>
  <flow id="f92" type="passenger" from="edge_E_in" to="edge_S_out" begin="32400" end="33300" vehsPerHour="68.0" departLane="best" departSpeed="max"/>
  <flow id="f93" type="passenger" from="edge_W_in" to="edge_E_out" begin="32400" end="33300" vehsPerHour="384.0" departLane="best" departSpeed="max"/>
  <flow id="f94" type="passenger" from="edge_W_in" to="edge_S_out" begin="32400" end="33300" vehsPerHour="40.0" departLane="best" departSpeed="max"/>
  <flow id="f95" type="passenger" from="edge_W_in" to="edge_N_out" begin="32400" end="33300" vehsPerHour="36.0" departLane="best" departSpeed="max"/>
  <flow id="f96" type="passenger" from="edge_N_in" to="edge_S_out" begin="33300" end="34200" vehsPerHour="684.0" departLane="best" departSpeed="max"/>
  <flow id="f97" type="passenger" from="edge_N_in" to="edge_W_out" begin="33300" end="34200" vehsPerHour="64.0" departLane="best" departSpeed="max"/>
  <flow id="f98" type="passenger" from="edge_N_in" to="edge_E_out" begin="33300" end="34200" vehsPerHour="100.0" departLane="best" departSpeed="max"/>
  <flow id="f99" type="passenger" from="edge_S_in" to="edge_N_out" begin="33300" end="34200" vehsPerHour="624.0" departLane="best" departSpeed="max"/>
  <flow id="f100" type="passenger" from="edge_S_in" to="edge_E_out" begin="33300" end="34200" vehsPerHour="28.0" departLane="best" departSpeed="max"/>
  <flow id="f101" type="passenger" from="edge_S_in" to="edge_W_out" begin="33300" end="34200" vehsPerHour="108.0" departLane="best" departSpeed="max"/>
  <flow id="f102" type="passenger" from="edge_E_in" to="edge_W_out" begin="33300" end="34200" vehsPerHour="412.0" departLane="best" departSpeed="max"/>
  <flow id="f103" type="passenger" from="edge_E_in" to="edge_N_out" begin="33300" end="34200" vehsPerHour="96.0" departLane="best" departSpeed="max"/>
  <flow id="f104" type="passenger" from="edge_E_in" to="edge_S_out" begin="33300" end="34200" vehsPerHour="44.0" departLane="best" departSpeed="max"/>
  <flow id="f105" type="passenger" from="edge_W_in" to="edge_E_out" begin="33300" end="34200" vehsPerHour="360.0" departLane="best" departSpeed="max"/>
  <flow id="f106" type="passenger" from="edge_W_in" to="edge_S_out" begin="33300" end="34200" vehsPerHour="80.0" departLane="best" departSpeed="max"/>
  <flow id="f107" type="passenger" from="edge_W_in" to="edge_N_out" begin="33300" end="34200" vehsPerHour="44.0" departLane="best" departSpeed="max"/>
  <flow id="f108" type="passenger" from="edge_N_in" to="edge_S_out" begin="36000" end="36900" vehsPerHour="604.0" departLane="best" departSpeed="max"/>
  <flow id="f109" type="passenger" from="edge_N_in" to="edge_W_out" begin="36000" end="36900" vehsPerHour="28.0" departLane="best" departSpeed="max"/>
  <flow id="f110" type="passenger" from="edge_N_in" to="edge_E_out" begin="36000" end="36900" vehsPerHour="68.0" departLane="best" departSpeed="max"/>
  <flow id="f111" type="passenger" from="edge_S_in" to="edge_N_out" begin="36000" end="36900" vehsPerHour="348.0" departLane="best" departSpeed="max"/>
  <flow id="f112" type="passenger" from="edge_S_in" to="edge_E_out" begin="36000" end="36900" vehsPerHour="20.0" departLane="best" departSpeed="max"/>
  <flow id="f113" type="passenger" from="edge_S_in" to="edge_W_out" begin="36000" end="36900" vehsPerHour="40.0" departLane="best" departSpeed="max"/>
  <flow id="f114" type="passenger" from="edge_E_in" to="edge_W_out" begin="36000" end="36900" vehsPerHour="304.0" departLane="best" departSpeed="max"/>
  <flow id="f115" type="passenger" from="edge_E_in" to="edge_N_out" begin="36000" end="36900" vehsPerHour="68.0" departLane="best" departSpeed="max"/>
  <flow id="f116" type="passenger" from="edge_E_in" to="edge_S_out" begin="36000" end="36900" vehsPerHour="24.0" departLane="best" departSpeed="max"/>
  <flow id="f117" type="passenger" from="edge_W_in" to="edge_E_out" begin="36000" end="36900" vehsPerHour="332.0" departLane="best" departSpeed="max"/>
  <flow id="f118" type="passenger" from="edge_W_in" to="edge_S_out" begin="36000" end="36900" vehsPerHour="28.0" departLane="best" departSpeed="max"/>
  <flow id="f119" type="passenger" from="edge_W_in" to="edge_N_out" begin="36000" end="36900" vehsPerHour="76.0" departLane="best" departSpeed="max"/>
  <flow id="f120" type="passenger" from="edge_N_in" to="edge_S_out" begin="36900" end="37800" vehsPerHour="392.0" departLane="best" departSpeed="max"/>
  <flow id="f121" type="passenger" from="edge_N_in" to="edge_W_out" begin="36900" end="37800" vehsPerHour="40.0" departLane="best" departSpeed="max"/>
  <flow id="f122" type="passenger" from="edge_N_in" to="edge_E_out" begin="36900" end="37800" vehsPerHour="88.0" departLane="best" departSpeed="max"/>
  <flow id="f123" type="passenger" from="edge_S_in" to="edge_N_out" begin="36900" end="37800" vehsPerHour="428.0" departLane="best" departSpeed="max"/>
  <flow id="f124" type="passenger" from="edge_S_in" to="edge_E_out" begin="36900" end="37800" vehsPerHour="16.0" departLane="best" departSpeed="max"/>
  <flow id="f125" type="passenger" from="edge_S_in" to="edge_W_out" begin="36900" end="37800" vehsPerHour="88.0" departLane="best" departSpeed="max"/>
  <flow id="f126" type="passenger" from="edge_E_in" to="edge_W_out" begin="36900" end="37800" vehsPerHour="424.0" departLane="best" departSpeed="max"/>
  <flow id="f127" type="passenger" from="edge_E_in" to="edge_N_out" begin="36900" end="37800" vehsPerHour="92.0" departLane="best" departSpeed="max"/>
  <flow id="f128" type="passenger" from="edge_E_in" to="edge_S_out" begin="36900" end="37800" vehsPerHour="48.0" departLane="best" departSpeed="max"/>
  <flow id="f129" type="passenger" from="edge_W_in" to="edge_E_out" begin="36900" end="37800" vehsPerHour="388.0" departLane="best" departSpeed="max"/>
  <flow id="f130" type="passenger" from="edge_W_in" to="edge_S_out" begin="36900" end="37800" vehsPerHour="56.0" departLane="best" departSpeed="max"/>
  <flow id="f131" type="passenger" from="edge_W_in" to="edge_N_out" begin="36900" end="37800" vehsPerHour="28.0" departLane="best" departSpeed="max"/>
  <flow id="f132" type="passenger" from="edge_N_in" to="edge_S_out" begin="37800" end="38700" vehsPerHour="564.0" departLane="best" departSpeed="max"/>
  <flow id="f133" type="passenger" from="edge_N_in" to="edge_W_out" begin="37800" end="38700" vehsPerHour="60.0" departLane="best" departSpeed="max"/>
  <flow id="f134" type="passenger" from="edge_N_in" to="edge_E_out" begin="37800" end="38700" vehsPerHour="64.0" departLane="best" departSpeed="max"/>
  <flow id="f135" type="passenger" from="edge_S_in" to="edge_N_out" begin="37800" end="38700" vehsPerHour="424.0" departLane="best" departSpeed="max"/>
  <flow id="f136" type="passenger" from="edge_S_in" to="edge_E_out" begin="37800" end="38700" vehsPerHour="32.0" departLane="best" departSpeed="max"/>
  <flow id="f137" type="passenger" from="edge_S_in" to="edge_W_out" begin="37800" end="38700" vehsPerHour="80.0" departLane="best" departSpeed="max"/>
  <flow id="f138" type="passenger" from="edge_E_in" to="edge_W_out" begin="37800" end="38700" vehsPerHour="436.0" departLane="best" departSpeed="max"/>
  <flow id="f139" type="passenger" from="edge_E_in" to="edge_N_out" begin="37800" end="38700" vehsPerHour="120.0" departLane="best" departSpeed="max"/>
  <flow id="f140" type="passenger" from="edge_E_in" to="edge_S_out" begin="37800" end="38700" vehsPerHour="56.0" departLane="best" departSpeed="max"/>
  <flow id="f141" type="passenger" from="edge_W_in" to="edge_E_out" begin="37800" end="38700" vehsPerHour="240.0" departLane="best" departSpeed="max"/>
  <flow id="f142" type="passenger" from="edge_W_in" to="edge_S_out" begin="37800" end="38700" vehsPerHour="68.0" departLane="best" departSpeed="max"/>
  <flow id="f143" type="passenger" from="edge_W_in" to="edge_N_out" begin="37800" end="38700" vehsPerHour="44.0" departLane="best" departSpeed="max"/>
  <flow id="f144" type="passenger" from="edge_N_in" to="edge_S_out" begin="38700" end="39600" vehsPerHour="512.0" departLane="best" departSpeed="max"/>
  <flow id="f145" type="passenger" from="edge_N_in" to="edge_W_out" begin="38700" end="39600" vehsPerHour="32.0" departLane="best" departSpeed="max"/>
  <flow id="f146" type="passenger" from="edge_N_in" to="edge_E_out" begin="38700" end="39600" vehsPerHour="68.0" departLane="best" departSpeed="max"/>
  <flow id="f147" type="passenger" from="edge_S_in" to="edge_N_out" begin="38700" end="39600" vehsPerHour="408.0" departLane="best" departSpeed="max"/>
  <flow id="f148" type="passenger" from="edge_S_in" to="edge_E_out" begin="38700" end="39600" vehsPerHour="20.0" departLane="best" departSpeed="max"/>
  <flow id="f149" type="passenger" from="edge_S_in" to="edge_W_out" begin="38700" end="39600" vehsPerHour="52.0" departLane="best" departSpeed="max"/>
  <flow id="f150" type="passenger" from="edge_E_in" to="edge_W_out" begin="38700" end="39600" vehsPerHour="312.0" departLane="best" departSpeed="max"/>
  <flow id="f151" type="passenger" from="edge_E_in" to="edge_N_out" begin="38700" end="39600" vehsPerHour="80.0" departLane="best" departSpeed="max"/>
  <flow id="f152" type="passenger" from="edge_E_in" to="edge_S_out" begin="38700" end="39600" vehsPerHour="24.0" departLane="best" departSpeed="max"/>
  <flow id="f153" type="passenger" from="edge_W_in" to="edge_E_out" begin="38700" end="39600" vehsPerHour="372.0" departLane="best" departSpeed="max"/>
  <flow id="f154" type="passenger" from="edge_W_in" to="edge_S_out" begin="38700" end="39600" vehsPerHour="56.0" departLane="best" departSpeed="max"/>
  <flow id="f155" type="passenger" from="edge_W_in" to="edge_N_out" begin="38700" end="39600" vehsPerHour="48.0" departLane="best" departSpeed="max"/>
  <flow id="f156" type="passenger" from="edge_N_in" to="edge_S_out" begin="39600" end="40500" vehsPerHour="496.0" departLane="best" departSpeed="max"/>
  <flow id="f157" type="passenger" from="edge_N_in" to="edge_W_out" begin="39600" end="40500" vehsPerHour="36.0" departLane="best" departSpeed="max"/>
  <flow id="f158" type="passenger" from="edge_N_in" to="edge_E_out" begin="39600" end="40500" vehsPerHour="84.0" departLane="best" departSpeed="max"/>
  <flow id="f159" type="passenger" from="edge_S_in" to="edge_N_out" begin="39600" end="40500" vehsPerHour="368.0" departLane="best" departSpeed="max"/>
  <flow id="f160" type="passenger" from="edge_S_in" to="edge_E_out" begin="39600" end="40500" vehsPerHour="16.0" departLane="best" departSpeed="max"/>
  <flow id="f161" type="passenger" from="edge_S_in" to="edge_W_out" begin="39600" end="40500" vehsPerHour="44.0" departLane="best" departSpeed="max"/>
  <flow id="f162" type="passenger" from="edge_E_in" to="edge_W_out" begin="39600" end="40500" vehsPerHour="404.0" departLane="best" departSpeed="max"/>
  <flow id="f163" type="passenger" from="edge_E_in" to="edge_N_out" begin="39600" end="40500" vehsPerHour="112.0" departLane="best" departSpeed="max"/>
  <flow id="f164" type="passenger" from="edge_E_in" to="edge_S_out" begin="39600" end="40500" vehsPerHour="28.0" departLane="best" departSpeed="max"/>
  <flow id="f165" type="passenger" from="edge_W_in" to="edge_E_out" begin="39600" end="40500" vehsPerHour="300.0" departLane="best" departSpeed="max"/>
  <flow id="f166" type="passenger" from="edge_W_in" to="edge_S_out" begin="39600" end="40500" vehsPerHour="36.0" departLane="best" departSpeed="max"/>
  <flow id="f167" type="passenger" from="edge_W_in" to="edge_N_out" begin="39600" end="40500" vehsPerHour="36.0" departLane="best" departSpeed="max"/>
  <flow id="f168" type="passenger" from="edge_N_in" to="edge_S_out" begin="40500" end="41400" vehsPerHour="432.0" departLane="best" departSpeed="max"/>
  <flow id="f169" type="passenger" from="edge_N_in" to="edge_W_out" begin="40500" end="41400" vehsPerHour="40.0" departLane="best" departSpeed="max"/>
  <flow id="f170" type="passenger" from="edge_N_in" to="edge_E_out" begin="40500" end="41400" vehsPerHour="68.0" departLane="best" departSpeed="max"/>
  <flow id="f171" type="passenger" from="edge_S_in" to="edge_N_out" begin="40500" end="41400" vehsPerHour="340.0" departLane="best" departSpeed="max"/>
  <flow id="f172" type="passenger" from="edge_S_in" to="edge_E_out" begin="40500" end="41400" vehsPerHour="12.0" departLane="best" departSpeed="max"/>
  <flow id="f173" type="passenger" from="edge_S_in" to="edge_W_out" begin="40500" end="41400" vehsPerHour="36.0" departLane="best" departSpeed="max"/>
  <flow id="f174" type="passenger" from="edge_E_in" to="edge_W_out" begin="40500" end="41400" vehsPerHour="324.0" departLane="best" departSpeed="max"/>
  <flow id="f175" type="passenger" from="edge_E_in" to="edge_N_out" begin="40500" end="41400" vehsPerHour="76.0" departLane="best" departSpeed="max"/>
  <flow id="f176" type="passenger" from="edge_E_in" to="edge_S_out" begin="40500" end="41400" vehsPerHour="48.0" departLane="best" departSpeed="max"/>
  <flow id="f177" type="passenger" from="edge_W_in" to="edge_E_out" begin="40500" end="41400" vehsPerHour="288.0" departLane="best" departSpeed="max"/>
  <flow id="f178" type="passenger" from="edge_W_in" to="edge_S_out" begin="40500" end="41400" vehsPerHour="44.0" departLane="best" departSpeed="max"/>
  <flow id="f179" type="passenger" from="edge_W_in" to="edge_N_out" begin="40500" end="41400" vehsPerHour="36.0" departLane="best" departSpeed="max"/>
  <flow id="f180" type="passenger" from="edge_N_in" to="edge_S_out" begin="41400" end="42300" vehsPerHour="300.0" departLane="best" departSpeed="max"/>
  <flow id="f181" type="passenger" from="edge_N_in" to="edge_W_out" begin="41400" end="42300" vehsPerHour="20.0" departLane="best" departSpeed="max"/>
  <flow id="f182" type="passenger" from="edge_N_in" to="edge_E_out" begin="41400" end="42300" vehsPerHour="56.0" departLane="best" departSpeed="max"/>
  <flow id="f183" type="passenger" from="edge_S_in" to="edge_N_out" begin="41400" end="42300" vehsPerHour="264.0" departLane="best" departSpeed="max"/>
  <flow id="f184" type="passenger" from="edge_S_in" to="edge_E_out" begin="41400" end="42300" vehsPerHour="12.0" departLane="best" departSpeed="max"/>
  <flow id="f185" type="passenger" from="edge_S_in" to="edge_W_out" begin="41400" end="42300" vehsPerHour="56.0" departLane="best" departSpeed="max"/>
  <flow id="f186" type="passenger" from="edge_E_in" to="edge_W_out" begin="41400" end="42300" vehsPerHour="272.0" departLane="best" departSpeed="max"/>
  <flow id="f187" type="passenger" from="edge_E_in" to="edge_N_out" begin="41400" end="42300" vehsPerHour="56.0" departLane="best" departSpeed="max"/>
  <flow id="f188" type="passenger" from="edge_E_in" to="edge_S_out" begin="41400" end="42300" vehsPerHour="48.0" departLane="best" departSpeed="max"/>
  <flow id="f189" type="passenger" from="edge_W_in" to="edge_E_out" begin="41400" end="42300" vehsPerHour="256.0" departLane="best" departSpeed="max"/>
  <flow id="f190" type="passenger" from="edge_W_in" to="edge_S_out" begin="41400" end="42300" vehsPerHour="40.0" departLane="best" departSpeed="max"/>
  <flow id="f191" type="passenger" from="edge_W_in" to="edge_N_out" begin="41400" end="42300" vehsPerHour="12.0" departLane="best" departSpeed="max"/>
  <flow id="f192" type="passenger" from="edge_N_in" to="edge_S_out" begin="42300" end="43200" vehsPerHour="356.0" departLane="best" departSpeed="max"/>
  <flow id="f193" type="passenger" from="edge_N_in" to="edge_W_out" begin="42300" end="43200" vehsPerHour="12.0" departLane="best" departSpeed="max"/>
  <flow id="f194" type="passenger" from="edge_N_in" to="edge_E_out" begin="42300" end="43200" vehsPerHour="72.0" departLane="best" departSpeed="max"/>
  <flow id="f195" type="passenger" from="edge_S_in" to="edge_N_out" begin="42300" end="43200" vehsPerHour="300.0" departLane="best" departSpeed="max"/>
  <flow id="f196" type="passenger" from="edge_S_in" to="edge_E_out" begin="42300" end="43200" vehsPerHour="20.0" departLane="best" departSpeed="max"/>