<?xml version="1.0" encoding="UTF-8"?>
<tlLogics>
  <tlLogic id="J_centre" type="static" programID="0" offset="0">
    <phase duration="57" state="gGGggGGgrrrrrrrr" name="NS_green"/>
    <phase duration="3" state="yyyyyyyyrrrrrrrr" name="NS_amber"/>
    <phase duration="57" state="rrrrrrrrgGGggGGg" name="EW_green"/>
    <phase duration="3" state="rrrrrrrryyyyyyyy" name="EW_amber"/>
  </tlLogic>
</tlLogics>
