<?xml version="1.0" encoding="UTF-8"?>
<nodes>
  <node id="J_centre" x="0" y="0" type="traffic_light"/>
  <node id="node_N_in" x="0" y="200" type="priority"/>
  <node id="node_S_in" x="0" y="-200" type="priority"/>
  <node id="node_E_in" x="200" y="0" type="priority"/>
  <node id="node_W_in" x="-200" y="0" type="priority"/>
</nodes>
