<?xml version="1.0" encoding="UTF-8"?>
<tlLogics>
  <tlLogic id="J_centre" type="static" programID="0" offset="0">
    <phase duration="999999" state="gGGgrrrrgGGgrrrr" name="NS_service"/>
    <phase duration="999999" state="rrrrgGGgrrrrgGGg" name="EW_service"/>
  </tlLogic>
</tlLogics>
